MODEL 1
REMARK VINA RESULT:      -7.7      0.000      0.000
REMARK  4 active torsions:
REMARK  status: ('A' for Active; 'I' for Inactive)
REMARK    1  A    between atoms: O_3  and  C_29 
REMARK    2  A    between atoms: O_4  and  C_30 
REMARK    3  A    between atoms: O_5  and  C_31 
REMARK    4  A    between atoms: O_6  and  C_32 
ROOT
HETATM    1  O   UNK     0      -5.402 -21.264 -55.968  0.00  0.00    -0.307 OA
HETATM    2  O   UNK     0      -0.330 -20.119 -54.599  0.00  0.00    -0.307 OA
HETATM    3  N   UNK     0      -7.792 -21.307 -52.533  0.00  0.00     0.093 N 
HETATM    4  N   UNK     0       2.111 -20.360 -57.990  0.00  0.00     0.093 N 
HETATM    5  C   UNK     0      -6.633 -20.891 -53.362  0.00  0.00     0.263 C 
HETATM    6  C   UNK     0       0.836 -20.142 -57.261  0.00  0.00     0.263 C 
HETATM    7  C   UNK     0      -7.159 -20.279 -54.665  0.00  0.00     0.018 A 
HETATM    8  C   UNK     0       1.046 -19.027 -56.231  0.00  0.00     0.018 A 
HETATM    9  C   UNK     0      -8.609 -20.159 -52.138  0.00  0.00     0.277 C 
HETATM   10  C   UNK     0       2.502 -19.173 -58.753  0.00  0.00     0.277 C 
HETATM   11  C   UNK     0      -8.364 -19.545 -54.626  0.00  0.00    -0.042 A 
HETATM   12  C   UNK     0       1.924 -17.969 -56.552  0.00  0.00    -0.042 A 
HETATM   13  C   UNK     0      -9.190 -19.445 -53.364  0.00  0.00     0.069 C 
HETATM   14  C   UNK     0       2.731 -17.971 -57.830  0.00  0.00     0.069 C 
HETATM   15  C   UNK     0      -5.668 -19.911 -52.624  0.00  0.00     0.079 C 
HETATM   16  C   UNK     0      -0.366 -19.823 -58.204  0.00  0.00     0.079 C 
HETATM   17  C   UNK     0      -6.512 -20.450 -55.906  0.00  0.00     0.121 A 
HETATM   18  C   UNK     0       0.431 -19.032 -54.962  0.00  0.00     0.121 A 
HETATM   19  C   UNK     0      -4.238 -19.920 -53.110  0.00  0.00    -0.056 A 
HETATM   20  C   UNK     0      -1.729 -20.181 -57.660  0.00  0.00    -0.056 A 
HETATM   21  C   UNK     0      -7.426 -22.130 -51.384  0.00  0.00     0.310 C 
HETATM   22  C   UNK     0       2.115 -21.561 -58.818  0.00  0.00     0.310 C 
HETATM   23  C   UNK     0      -8.878 -18.974 -55.801  0.00  0.00     0.047 A 
HETATM   24  C   UNK     0       2.145 -16.933 -55.632  0.00  0.00     0.047 A 
HETATM   25  C   UNK     0      -7.073 -19.925 -57.079  0.00  0.00     0.136 A 
HETATM   26  C   UNK     0       0.712 -18.020 -54.031  0.00  0.00     0.136 A 
HETATM   27  C   UNK     0      -8.236 -19.165 -57.021  0.00  0.00     0.104 A 
HETATM   28  C   UNK     0       1.544 -16.960 -54.377  0.00  0.00     0.104 A 
HETATM   29  C   UNK     0      -3.659 -18.761 -53.639  0.00  0.00     0.010 A 
HETATM   30  C   UNK     0      -2.055 -21.511 -57.366  0.00  0.00     0.010 A 
HETATM   31  C   UNK     0      -3.456 -21.078 -53.009  0.00  0.00     0.010 A 
HETATM   32  C   UNK     0      -2.701 -19.191 -57.472  0.00  0.00     0.010 A 
HETATM   33  C   UNK     0      -4.260 -20.837 -56.611  0.00  0.00     0.076 A 
HETATM   34  C   UNK     0      -1.584 -19.943 -54.052  0.00  0.00     0.076 A 
HETATM   35  C   UNK     0      -3.308 -21.835 -56.842  0.00  0.00     0.038 A 
HETATM   36  C   UNK     0      -2.345 -18.772 -54.115  0.00  0.00     0.038 A 
HETATM   37  C   UNK     0      -3.955 -19.513 -56.942  0.00  0.00     0.038 A 
HETATM   38  C   UNK     0      -2.141 -21.090 -53.480  0.00  0.00     0.038 A 
ENDROOT
BRANCH  25  39
HETATM   39  O   UNK     0      -6.545 -20.203 -58.309  0.00  0.00    -0.351 OA
HETATM   40  C   UNK     0      -7.015 -21.379 -58.961  0.00  0.00     0.210 C 
ENDBRANCH  25  39
BRANCH  27  41
HETATM   41  O   UNK     0      -8.783 -18.640 -58.152  0.00  0.00    -0.353 OA
HETATM   42  C   UNK     0     -10.052 -19.150 -58.556  0.00  0.00     0.210 C 
ENDBRANCH  27  41
BRANCH  26  43
HETATM   43  O   UNK     0       0.246 -18.082 -52.748  0.00  0.00    -0.351 OA
HETATM   44  C   UNK     0       1.057 -18.774 -51.802  0.00  0.00     0.210 C 
ENDBRANCH  26  43
BRANCH  28  45
HETATM   45  O   UNK     0       1.813 -15.967 -53.486  0.00  0.00    -0.353 OA
HETATM   46  C   UNK     0       1.093 -14.746 -53.638  0.00  0.00     0.210 C 
ENDBRANCH  28  45
TORSDOF 4
ENDMDL
MODEL 2
REMARK VINA RESULT:      -7.7      0.103      9.150
REMARK  4 active torsions:
REMARK  status: ('A' for Active; 'I' for Inactive)
REMARK    1  A    between atoms: O_3  and  C_29 
REMARK    2  A    between atoms: O_4  and  C_30 
REMARK    3  A    between atoms: O_5  and  C_31 
REMARK    4  A    between atoms: O_6  and  C_32 
ROOT
HETATM    1  O   UNK     0      -0.358 -20.058 -54.554  0.00  0.00    -0.307 OA
HETATM    2  O   UNK     0      -5.427 -21.266 -55.880  0.00  0.00    -0.307 OA
HETATM    3  N   UNK     0       2.060 -20.282 -57.962  0.00  0.00     0.093 N 
HETATM    4  N   UNK     0      -7.789 -21.325 -52.426  0.00  0.00     0.093 N 
HETATM    5  C   UNK     0       0.788 -20.076 -57.225  0.00  0.00     0.263 C 
HETATM    6  C   UNK     0      -6.642 -20.898 -53.265  0.00  0.00     0.263 C 
HETATM    7  C   UNK     0       0.993 -18.955 -56.200  0.00  0.00     0.018 A 
HETATM    8  C   UNK     0      -7.184 -20.298 -54.567  0.00  0.00     0.018 A 
HETATM    9  C   UNK     0       2.431 -19.094 -58.733  0.00  0.00     0.277 C 
HETATM   10  C   UNK     0      -8.617 -20.184 -52.030  0.00  0.00     0.277 C 
HETATM   11  C   UNK     0       1.856 -17.888 -56.533  0.00  0.00    -0.042 A 
HETATM   12  C   UNK     0      -8.398 -19.578 -54.522  0.00  0.00    -0.042 A 
HETATM   13  C   UNK     0       2.654 -17.886 -57.816  0.00  0.00     0.069 C 
HETATM   14  C   UNK     0      -9.215 -19.482 -53.255  0.00  0.00     0.069 C 
HETATM   15  C   UNK     0      -0.425 -19.776 -58.160  0.00  0.00     0.079 C 
HETATM   16  C   UNK     0      -5.683 -19.903 -52.539  0.00  0.00     0.079 C 
HETATM   17  C   UNK     0       0.388 -18.961 -54.926  0.00  0.00     0.121 A 
HETATM   18  C   UNK     0      -6.544 -20.466 -55.813  0.00  0.00     0.121 A 
HETATM   19  C   UNK     0      -1.779 -20.146 -57.603  0.00  0.00    -0.056 A 
HETATM   20  C   UNK     0      -4.256 -19.898 -53.036  0.00  0.00    -0.056 A 
HETATM   21  C   UNK     0       2.072 -21.486 -58.786  0.00  0.00     0.310 C 
HETATM   22  C   UNK     0      -7.404 -22.139 -51.277  0.00  0.00     0.310 C 
HETATM   23  C   UNK     0       2.070 -16.845 -55.618  0.00  0.00     0.047 A 
HETATM   24  C   UNK     0      -8.928 -19.018 -55.695  0.00  0.00     0.047 A 
HETATM   25  C   UNK     0       0.664 -17.943 -54.002  0.00  0.00     0.136 A 
HETATM   26  C   UNK     0      -7.121 -19.952 -56.983  0.00  0.00     0.136 A 
HETATM   27  C   UNK     0       1.479 -16.875 -54.359  0.00  0.00     0.104 A 
HETATM   28  C   UNK     0      -8.294 -19.207 -56.919  0.00  0.00     0.104 A 
HETATM   29  C   UNK     0      -2.761 -19.168 -57.411  0.00  0.00     0.010 A 
HETATM   30  C   UNK     0      -3.461 -21.047 -52.937  0.00  0.00     0.010 A 
HETATM   31  C   UNK     0      -2.088 -21.479 -57.304  0.00  0.00     0.010 A 
HETATM   32  C   UNK     0      -3.695 -18.733 -53.572  0.00  0.00     0.010 A 
HETATM   33  C   UNK     0      -1.609 -19.893 -53.998  0.00  0.00     0.076 A 
HETATM   34  C   UNK     0      -4.293 -20.829 -56.533  0.00  0.00     0.076 A 
HETATM   35  C   UNK     0      -2.150 -21.045 -53.418  0.00  0.00     0.038 A 
HETATM   36  C   UNK     0      -4.006 -19.503 -56.871  0.00  0.00     0.038 A 
HETATM   37  C   UNK     0      -2.384 -18.732 -54.059  0.00  0.00     0.038 A 
HETATM   38  C   UNK     0      -3.334 -21.816 -56.769  0.00  0.00     0.038 A 
ENDROOT
BRANCH  25  39
HETATM   39  O   UNK     0       0.208 -18.006 -52.715  0.00  0.00    -0.351 OA
HETATM   40  C   UNK     0       1.022 -18.705 -51.778  0.00  0.00     0.210 C 
ENDBRANCH  25  39
BRANCH  27  41
HETATM   41  O   UNK     0       1.743 -15.874 -53.474  0.00  0.00    -0.353 OA
HETATM   42  C   UNK     0       1.042 -14.645 -53.656  0.00  0.00     0.210 C 
ENDBRANCH  27  41
BRANCH  26  43
HETATM   43  O   UNK     0      -6.600 -20.228 -58.216  0.00  0.00    -0.351 OA
HETATM   44  C   UNK     0      -7.078 -21.400 -58.870  0.00  0.00     0.210 C 
ENDBRANCH  26  43
BRANCH  28  45
HETATM   45  O   UNK     0      -8.856 -18.693 -58.048  0.00  0.00    -0.353 OA
HETATM   46  C   UNK     0     -10.159 -19.155 -58.393  0.00  0.00     0.210 C 
ENDBRANCH  28  45
TORSDOF 4
ENDMDL
MODEL 3
REMARK VINA RESULT:      -7.1     20.085     26.807
REMARK  4 active torsions:
REMARK  status: ('A' for Active; 'I' for Inactive)
REMARK    1  A    between atoms: O_3  and  C_29 
REMARK    2  A    between atoms: O_4  and  C_30 
REMARK    3  A    between atoms: O_5  and  C_31 
REMARK    4  A    between atoms: O_6  and  C_32 
ROOT
HETATM    1  O   UNK     0      19.682  -4.286 -48.137  0.00  0.00    -0.307 OA
HETATM    2  O   UNK     0      14.737  -5.712 -49.695  0.00  0.00    -0.307 OA
HETATM    3  N   UNK     0      19.855  -4.218 -43.956  0.00  0.00     0.093 N 
HETATM    4  N   UNK     0      14.482  -5.500 -53.868  0.00  0.00     0.093 N 
HETATM    5  C   UNK     0      19.345  -4.668 -45.276  0.00  0.00     0.263 C 
HETATM    6  C   UNK     0      15.179  -5.676 -52.569  0.00  0.00     0.263 C 
HETATM    7  C   UNK     0      20.519  -5.218 -46.092  0.00  0.00     0.018 A 
HETATM    8  C   UNK     0      14.512  -6.826 -51.807  0.00  0.00     0.018 A 
HETATM    9  C   UNK     0      20.396  -5.335 -43.181  0.00  0.00     0.277 C 
HETATM   10  C   UNK     0      14.627  -6.685 -54.717  0.00  0.00     0.277 C 
HETATM   11  C   UNK     0      21.555  -5.894 -45.411  0.00  0.00    -0.042 A 
HETATM   12  C   UNK     0      14.003  -7.917 -52.545  0.00  0.00    -0.042 A 
HETATM   13  C   UNK     0      21.581  -5.987 -43.902  0.00  0.00     0.069 C 
HETATM   14  C   UNK     0      14.006  -7.920 -54.056  0.00  0.00     0.069 C 
HETATM   15  C   UNK     0      18.191  -5.713 -45.167  0.00  0.00     0.079 C 
HETATM   16  C   UNK     0      16.715  -5.910 -52.719  0.00  0.00     0.079 C 
HETATM   17  C   UNK     0      20.629  -5.046 -47.487  0.00  0.00     0.121 A 
HETATM   18  C   UNK     0      14.351  -6.826 -50.405  0.00  0.00     0.121 A 
HETATM   19  C   UNK     0      17.246  -5.761 -46.343  0.00  0.00    -0.056 A 
HETATM   20  C   UNK     0      17.552  -5.501 -51.530  0.00  0.00    -0.056 A 
HETATM   21  C   UNK     0      18.886  -3.445 -43.186  0.00  0.00     0.310 C 
HETATM   22  C   UNK     0      14.856  -4.279 -54.573  0.00  0.00     0.310 C 
HETATM   23  C   UNK     0      22.648  -6.408 -46.125  0.00  0.00     0.047 A 
HETATM   24  C   UNK     0      13.381  -8.986 -51.883  0.00  0.00     0.047 A 
HETATM   25  C   UNK     0      21.759  -5.512 -48.175  0.00  0.00     0.136 A 
HETATM   26  C   UNK     0      13.672  -7.874 -49.767  0.00  0.00     0.136 A 
HETATM   27  C   UNK     0      22.751  -6.215 -47.499  0.00  0.00     0.104 A 
HETATM   28  C   UNK     0      13.215  -8.964 -50.501  0.00  0.00     0.104 A 
HETATM   29  C   UNK     0      17.105  -6.932 -47.096  0.00  0.00     0.010 A 
HETATM   30  C   UNK     0      17.596  -4.165 -51.112  0.00  0.00     0.010 A 
HETATM   31  C   UNK     0      16.468  -4.646 -46.681  0.00  0.00     0.010 A 
HETATM   32  C   UNK     0      18.326  -6.447 -50.847  0.00  0.00     0.010 A 
HETATM   33  C   UNK     0      19.087  -4.751 -49.291  0.00  0.00     0.076 A 
HETATM   34  C   UNK     0      15.512  -5.841 -48.561  0.00  0.00     0.076 A 
HETATM   35  C   UNK     0      18.354  -3.794 -50.000  0.00  0.00     0.038 A 
HETATM   36  C   UNK     0      16.252  -6.972 -48.203  0.00  0.00     0.038 A 
HETATM   37  C   UNK     0      19.081  -6.078 -49.729  0.00  0.00     0.038 A 
HETATM   38  C   UNK     0      15.612  -4.685 -47.783  0.00  0.00     0.038 A 
ENDROOT
BRANCH  25  39
HETATM   39  O   UNK     0      21.957  -5.227 -49.496  0.00  0.00    -0.351 OA
HETATM   40  C   UNK     0      22.651  -4.020 -49.799  0.00  0.00     0.210 C 
ENDBRANCH  25  39
BRANCH  27  41
HETATM   41  O   UNK     0      23.847  -6.683 -48.159  0.00  0.00    -0.353 OA
HETATM   42  C   UNK     0      25.122  -6.268 -47.674  0.00  0.00     0.210 C 
ENDBRANCH  27  41
BRANCH  26  43
HETATM   43  O   UNK     0      13.374  -7.824 -48.435  0.00  0.00    -0.351 OA
HETATM   44  C   UNK     0      12.107  -7.277 -48.078  0.00  0.00     0.210 C 
ENDBRANCH  26  43
BRANCH  28  45
HETATM   45  O   UNK     0      12.566  -9.993 -49.890  0.00  0.00    -0.353 OA
HETATM   46  C   UNK     0      13.327 -11.164 -49.607  0.00  0.00     0.210 C 
ENDBRANCH  28  45
TORSDOF 4
ENDMDL
MODEL 4
REMARK VINA RESULT:      -7.1     20.036     26.107
REMARK  4 active torsions:
REMARK  status: ('A' for Active; 'I' for Inactive)
REMARK    1  A    between atoms: O_3  and  C_29 
REMARK    2  A    between atoms: O_4  and  C_30 
REMARK    3  A    between atoms: O_5  and  C_31 
REMARK    4  A    between atoms: O_6  and  C_32 
ROOT
HETATM    1  O   UNK     0      14.720  -5.713 -49.736  0.00  0.00    -0.307 OA
HETATM    2  O   UNK     0      19.667  -4.291 -48.180  0.00  0.00    -0.307 OA
HETATM    3  N   UNK     0      14.467  -5.523 -53.908  0.00  0.00     0.093 N 
HETATM    4  N   UNK     0      19.836  -4.201 -43.999  0.00  0.00     0.093 N 
HETATM    5  C   UNK     0      15.163  -5.693 -52.608  0.00  0.00     0.263 C 
HETATM    6  C   UNK     0      19.326  -4.657 -45.317  0.00  0.00     0.263 C 
HETATM    7  C   UNK     0      14.493  -6.838 -51.841  0.00  0.00     0.018 A 
HETATM    8  C   UNK     0      20.499  -5.214 -46.130  0.00  0.00     0.018 A 
HETATM    9  C   UNK     0      14.611  -6.711 -54.752  0.00  0.00     0.277 C 
HETATM   10  C   UNK     0      20.375  -5.317 -43.218  0.00  0.00     0.277 C 
HETATM   11  C   UNK     0      13.982  -7.931 -52.574  0.00  0.00    -0.042 A 
HETATM   12  C   UNK     0      21.534  -5.888 -45.444  0.00  0.00    -0.042 A 
HETATM   13  C   UNK     0      13.986  -7.941 -54.085  0.00  0.00     0.069 C 
HETATM   14  C   UNK     0      21.558  -5.974 -43.936  0.00  0.00     0.069 C 
HETATM   15  C   UNK     0      16.698  -5.931 -52.756  0.00  0.00     0.079 C 
HETATM   16  C   UNK     0      18.169  -5.700 -45.204  0.00  0.00     0.079 C 
HETATM   17  C   UNK     0      14.330  -6.830 -50.440  0.00  0.00     0.121 A 
HETATM   18  C   UNK     0      20.610  -5.050 -47.526  0.00  0.00     0.121 A 
HETATM   19  C   UNK     0      17.535  -5.519 -51.569  0.00  0.00    -0.056 A 
HETATM   20  C   UNK     0      17.225  -5.751 -46.381  0.00  0.00    -0.056 A 
HETATM   21  C   UNK     0      14.844  -4.306 -54.620  0.00  0.00     0.310 C 
HETATM   22  C   UNK     0      18.867  -3.422 -43.234  0.00  0.00     0.310 C 
HETATM   23  C   UNK     0      13.359  -8.997 -51.906  0.00  0.00     0.047 A 
HETATM   24  C   UNK     0      22.627  -6.407 -46.154  0.00  0.00     0.047 A 
HETATM   25  C   UNK     0      13.649  -7.874 -49.797  0.00  0.00     0.136 A 
HETATM   26  C   UNK     0      21.741  -5.521 -48.210  0.00  0.00     0.136 A 
HETATM   27  C   UNK     0      13.191  -8.966 -50.525  0.00  0.00     0.104 A 
HETATM   28  C   UNK     0      22.731  -6.222 -47.530  0.00  0.00     0.104 A 
HETATM   29  C   UNK     0      18.305  -6.462 -50.879  0.00  0.00     0.010 A 
HETATM   30  C   UNK     0      16.451  -4.635 -46.726  0.00  0.00     0.010 A 
HETATM   31  C   UNK     0      17.584  -4.180 -51.159  0.00  0.00     0.010 A 
HETATM   32  C   UNK     0      17.081  -6.927 -47.127  0.00  0.00     0.010 A 
HETATM   33  C   UNK     0      15.492  -5.839 -48.600  0.00  0.00     0.076 A 
HETATM   34  C   UNK     0      19.070  -4.760 -49.332  0.00  0.00     0.076 A 
HETATM   35  C   UNK     0      15.596  -4.678 -47.828  0.00  0.00     0.038 A 
HETATM   36  C   UNK     0      19.061  -6.090 -49.763  0.00  0.00     0.038 A 
HETATM   37  C   UNK     0      16.229  -6.970 -48.234  0.00  0.00     0.038 A 
HETATM   38  C   UNK     0      18.342  -3.805 -50.047  0.00  0.00     0.038 A 
ENDROOT
BRANCH  25  39
HETATM   39  O   UNK     0      13.351  -7.816 -48.465  0.00  0.00    -0.351 OA
HETATM   40  C   UNK     0      12.091  -7.253 -48.111  0.00  0.00     0.210 C 
ENDBRANCH  25  39
BRANCH  27  41
HETATM   41  O   UNK     0      12.540  -9.991 -49.909  0.00  0.00    -0.353 OA
HETATM   42  C   UNK     0      13.289 -11.180 -49.662  0.00  0.00     0.210 C 
ENDBRANCH  27  41
BRANCH  26  43
HETATM   43  O   UNK     0      21.940  -5.244 -49.533  0.00  0.00    -0.351 OA
HETATM   44  C   UNK     0      22.610  -4.025 -49.842  0.00  0.00     0.210 C 
ENDBRANCH  26  43
BRANCH  28  45
HETATM   45  O   UNK     0      23.826  -6.695 -48.187  0.00  0.00    -0.353 OA
HETATM   46  C   UNK     0      25.089  -6.141 -47.826  0.00  0.00     0.210 C 
ENDBRANCH  28  45
TORSDOF 4
ENDMDL
MODEL 5
REMARK VINA RESULT:      -6.9      2.077      2.907
REMARK  4 active torsions:
REMARK  status: ('A' for Active; 'I' for Inactive)
REMARK    1  A    between atoms: O_3  and  C_29 
REMARK    2  A    between atoms: O_4  and  C_30 
REMARK    3  A    between atoms: O_5  and  C_31 
REMARK    4  A    between atoms: O_6  and  C_32 
ROOT
HETATM    1  O   UNK     0      -3.905 -21.797 -53.479  0.00  0.00    -0.307 OA
HETATM    2  O   UNK     0       1.249 -20.291 -53.761  0.00  0.00    -0.307 OA
HETATM    3  N   UNK     0      -4.972 -22.353 -49.471  0.00  0.00     0.093 N 
HETATM    4  N   UNK     0       2.398 -20.015 -57.776  0.00  0.00     0.093 N 
HETATM    5  C   UNK     0      -4.194 -21.761 -50.587  0.00  0.00     0.263 C 
HETATM    6  C   UNK     0       1.437 -19.981 -56.645  0.00  0.00     0.263 C 
HETATM    7  C   UNK     0      -5.169 -21.096 -51.565  0.00  0.00     0.018 A 
HETATM    8  C   UNK     0       1.916 -18.941 -55.626  0.00  0.00     0.018 A 
HETATM    9  C   UNK     0      -5.675 -21.324 -48.703  0.00  0.00     0.277 C 
HETATM   10  C   UNK     0       2.430 -18.737 -58.489  0.00  0.00     0.277 C 
HETATM   11  C   UNK     0      -6.332 -20.486 -51.046  0.00  0.00    -0.042 A 
HETATM   12  C   UNK     0       2.565 -17.780 -56.103  0.00  0.00    -0.042 A 
HETATM   13  C   UNK     0      -6.682 -20.570 -49.579  0.00  0.00     0.069 C 
HETATM   14  C   UNK     0       2.887 -17.600 -57.568  0.00  0.00     0.069 C 
HETATM   15  C   UNK     0      -3.097 -20.757 -50.110  0.00  0.00     0.079 C 
HETATM   16  C   UNK     0      -0.033 -19.701 -57.092  0.00  0.00     0.079 C 
HETATM   17  C   UNK     0      -4.975 -21.100 -52.962  0.00  0.00     0.121 A 
HETATM   18  C   UNK     0       1.772 -19.109 -54.234  0.00  0.00     0.121 A 
HETATM   19  C   UNK     0      -1.922 -20.590 -51.043  0.00  0.00    -0.056 A 
HETATM   20  C   UNK     0      -1.103 -20.231 -56.167  0.00  0.00    -0.056 A 
HETATM   21  C   UNK     0      -4.187 -23.230 -48.609  0.00  0.00     0.310 C 
HETATM   22  C   UNK     0       2.192 -21.138 -58.685  0.00  0.00     0.310 C 
HETATM   23  C   UNK     0      -7.249 -19.870 -51.912  0.00  0.00     0.047 A 
HETATM   24  C   UNK     0       3.022 -16.809 -55.201  0.00  0.00     0.047 A 
HETATM   25  C   UNK     0      -5.934 -20.535 -53.815  0.00  0.00     0.136 A 
HETATM   26  C   UNK     0       2.291 -18.157 -53.345  0.00  0.00     0.136 A 
HETATM   27  C   UNK     0      -7.052 -19.898 -53.289  0.00  0.00     0.104 A 
HETATM   28  C   UNK     0       2.888 -16.997 -53.828  0.00  0.00     0.104 A 
HETATM   29  C   UNK     0      -1.630 -19.341 -51.603  0.00  0.00     0.010 A 
HETATM   30  C   UNK     0      -1.227 -21.606 -55.931  0.00  0.00     0.010 A 
HETATM   31  C   UNK     0      -1.082 -21.672 -51.336  0.00  0.00     0.010 A 
HETATM   32  C   UNK     0      -2.012 -19.358 -55.559  0.00  0.00     0.010 A 
HETATM   33  C   UNK     0      -3.079 -21.210 -54.415  0.00  0.00     0.076 A 
HETATM   34  C   UNK     0       0.249 -20.282 -52.811  0.00  0.00     0.076 A 
HETATM   35  C   UNK     0      -2.204 -22.091 -55.059  0.00  0.00     0.038 A 
HETATM   36  C   UNK     0      -0.559 -19.187 -52.488  0.00  0.00     0.038 A 
HETATM   37  C   UNK     0      -2.988 -19.841 -54.681  0.00  0.00     0.038 A 
HETATM   38  C   UNK     0      -0.008 -21.519 -52.216  0.00  0.00     0.038 A 
ENDROOT
BRANCH  25  39
HETATM   39  O   UNK     0      -5.841 -20.659 -55.173  0.00  0.00    -0.351 OA
HETATM   40  C   UNK     0      -6.470 -21.793 -55.762  0.00  0.00     0.210 C 
ENDBRANCH  25  39
BRANCH  27  41
HETATM   41  O   UNK     0      -7.983 -19.335 -54.108  0.00  0.00    -0.353 OA
HETATM   42  C   UNK     0      -9.277 -19.102 -53.555  0.00  0.00     0.210 C 
ENDBRANCH  27  41
BRANCH  26  43
HETATM   43  O   UNK     0       2.295 -18.369 -51.995  0.00  0.00    -0.351 OA
HETATM   44  C   UNK     0       3.444 -19.012 -51.448  0.00  0.00     0.210 C 
ENDBRANCH  26  43
BRANCH  28  45
HETATM   45  O   UNK     0       3.383 -16.060 -52.974  0.00  0.00    -0.353 OA
HETATM   46  C   UNK     0       4.754 -15.700 -53.129  0.00  0.00     0.210 C 
ENDBRANCH  28  45
TORSDOF 4
ENDMDL
MODEL 6
REMARK VINA RESULT:      -6.8     18.631     24.985
REMARK  4 active torsions:
REMARK  status: ('A' for Active; 'I' for Inactive)
REMARK    1  A    between atoms: O_3  and  C_29 
REMARK    2  A    between atoms: O_4  and  C_30 
REMARK    3  A    between atoms: O_5  and  C_31 
REMARK    4  A    between atoms: O_6  and  C_32 
ROOT
HETATM    1  O   UNK     0      13.464  -5.794 -50.391  0.00  0.00    -0.307 OA
HETATM    2  O   UNK     0      17.403  -4.115 -47.139  0.00  0.00    -0.307 OA
HETATM    3  N   UNK     0      14.815  -5.741 -54.351  0.00  0.00     0.093 N 
HETATM    4  N   UNK     0      15.963  -3.892 -43.215  0.00  0.00     0.093 N 
HETATM    5  C   UNK     0      14.967  -5.841 -52.878  0.00  0.00     0.263 C 
HETATM    6  C   UNK     0      16.007  -4.409 -44.606  0.00  0.00     0.263 C 
HETATM    7  C   UNK     0      14.088  -6.991 -52.373  0.00  0.00     0.018 A 
HETATM    8  C   UNK     0      17.417  -4.939 -44.887  0.00  0.00     0.018 A 
HETATM    9  C   UNK     0      15.302  -6.946 -55.023  0.00  0.00     0.277 C 
HETATM   10  C   UNK     0      16.195  -4.959 -42.239  0.00  0.00     0.277 C 
HETATM   11  C   UNK     0      13.926  -8.127 -53.196  0.00  0.00    -0.042 A 
HETATM   12  C   UNK     0      18.131  -5.547 -43.831  0.00  0.00    -0.042 A 
HETATM   13  C   UNK     0      14.506  -8.182 -54.591  0.00  0.00     0.069 C 
HETATM   14  C   UNK     0      17.581  -5.586 -42.424  0.00  0.00     0.069 C 
HETATM   15  C   UNK     0      16.449  -6.018 -52.421  0.00  0.00     0.079 C 
HETATM   16  C   UNK     0      14.925  -5.496 -44.894  0.00  0.00     0.079 C 
HETATM   17  C   UNK     0      13.404  -6.948 -51.140  0.00  0.00     0.121 A 
HETATM   18  C   UNK     0      18.047  -4.812 -46.143  0.00  0.00     0.121 A 
HETATM   19  C   UNK     0      16.759  -5.535 -51.024  0.00  0.00    -0.056 A 
HETATM   20  C   UNK     0      14.502  -5.623 -46.339  0.00  0.00    -0.056 A 
HETATM   21  C   UNK     0      15.400  -4.531 -54.919  0.00  0.00     0.310 C 
HETATM   22  C   UNK     0      14.755  -3.133 -42.910  0.00  0.00     0.310 C 
HETATM   23  C   UNK     0      13.126  -9.198 -52.768  0.00  0.00     0.047 A 
HETATM   24  C   UNK     0      19.427  -6.039 -44.049  0.00  0.00     0.047 A 
HETATM   25  C   UNK     0      12.559  -8.000 -50.758  0.00  0.00     0.136 A 
HETATM   26  C   UNK     0      19.366  -5.254 -46.324  0.00  0.00     0.136 A 
HETATM   27  C   UNK     0      12.444  -9.132 -51.557  0.00  0.00     0.104 A 
HETATM   28  C   UNK     0      20.041  -5.892 -45.289  0.00  0.00     0.104 A 
HETATM   29  C   UNK     0      17.234  -6.423 -50.053  0.00  0.00     0.010 A 
HETATM   30  C   UNK     0      13.887  -4.552 -47.000  0.00  0.00     0.010 A 
HETATM   31  C   UNK     0      16.609  -4.183 -50.686  0.00  0.00     0.010 A 
HETATM   32  C   UNK     0      14.686  -6.826 -47.030  0.00  0.00     0.010 A 
HETATM   33  C   UNK     0      13.748  -5.853 -49.042  0.00  0.00     0.076 A 
HETATM   34  C   UNK     0      17.303  -4.643 -48.409  0.00  0.00     0.076 A 
HETATM   35  C   UNK     0      13.517  -4.665 -48.341  0.00  0.00     0.038 A 
HETATM   36  C   UNK     0      17.497  -5.984 -48.752  0.00  0.00     0.038 A 
HETATM   37  C   UNK     0      14.322  -6.939 -48.375  0.00  0.00     0.038 A 
HETATM   38  C   UNK     0      16.876  -3.743 -49.388  0.00  0.00     0.038 A 
ENDROOT
BRANCH  25  39
HETATM   39  O   UNK     0      11.774  -7.915 -49.643  0.00  0.00    -0.351 OA
HETATM   40  C   UNK     0      10.475  -7.355 -49.811  0.00  0.00     0.210 C 
ENDBRANCH  25  39
BRANCH  27  41
HETATM   41  O   UNK     0      11.636 -10.166 -51.189  0.00  0.00    -0.353 OA
HETATM   42  C   UNK     0      10.422 -10.332 -51.920  0.00  0.00     0.210 C 
ENDBRANCH  27  41
BRANCH  26  43
HETATM   43  O   UNK     0      20.046  -5.009 -47.484  0.00  0.00    -0.351 OA
HETATM   44  C   UNK     0      20.794  -3.798 -47.547  0.00  0.00     0.210 C 
ENDBRANCH  26  43
BRANCH  28  45
HETATM   45  O   UNK     0      21.317  -6.337 -45.459  0.00  0.00    -0.353 OA
HETATM   46  C   UNK     0      22.258  -6.016 -44.438  0.00  0.00     0.210 C 
ENDBRANCH  28  45
TORSDOF 4
ENDMDL
MODEL 7
REMARK VINA RESULT:      -6.7     20.003     24.625
REMARK  4 active torsions:
REMARK  status: ('A' for Active; 'I' for Inactive)
REMARK    1  A    between atoms: O_3  and  C_29 
REMARK    2  A    between atoms: O_4  and  C_30 
REMARK    3  A    between atoms: O_5  and  C_31 
REMARK    4  A    between atoms: O_6  and  C_32 
ROOT
HETATM    1  O   UNK     0      14.677  -5.644 -50.892  0.00  0.00    -0.307 OA
HETATM    2  O   UNK     0      10.379  -2.642 -49.695  0.00  0.00    -0.307 OA
HETATM    3  N   UNK     0      13.760  -8.162 -54.106  0.00  0.00     0.093 N 
HETATM    4  N   UNK     0      11.200  -0.333 -46.301  0.00  0.00     0.093 N 
HETATM    5  C   UNK     0      13.631  -6.940 -53.273  0.00  0.00     0.263 C 
HETATM    6  C   UNK     0      11.546  -1.086 -47.533  0.00  0.00     0.263 C 
HETATM    7  C   UNK     0      15.002  -6.261 -53.186  0.00  0.00     0.018 A 
HETATM    8  C   UNK     0      10.763  -0.490 -48.708  0.00  0.00     0.018 A 
HETATM    9  C   UNK     0      14.137  -7.836 -55.482  0.00  0.00     0.277 C 
HETATM   10  C   UNK     0      11.618   1.067 -46.396  0.00  0.00     0.277 C 
HETATM   11  C   UNK     0      15.859  -6.327 -54.306  0.00  0.00    -0.042 A 
HETATM   12  C   UNK     0      10.516   0.901 -48.716  0.00  0.00    -0.042 A 
HETATM   13  C   UNK     0      15.499  -7.135 -55.531  0.00  0.00     0.069 C 
HETATM   14  C   UNK     0      10.909   1.780 -47.552  0.00  0.00     0.069 C 
HETATM   15  C   UNK     0      12.541  -5.951 -53.795  0.00  0.00     0.079 C 
HETATM   16  C   UNK     0      13.078  -1.115 -47.830  0.00  0.00     0.079 C 
HETATM   17  C   UNK     0      15.460  -5.607 -52.024  0.00  0.00     0.121 A 
HETATM   18  C   UNK     0      10.245  -1.274 -49.760  0.00  0.00     0.121 A 
HETATM   19  C   UNK     0      11.936  -5.044 -52.750  0.00  0.00    -0.056 A 
HETATM   20  C   UNK     0      13.558  -2.294 -48.644  0.00  0.00    -0.056 A 
HETATM   21  C   UNK     0      12.588  -9.030 -54.057  0.00  0.00     0.310 C 
HETATM   22  C   UNK     0      11.683  -0.961 -45.076  0.00  0.00     0.310 C 
HETATM   23  C   UNK     0      17.124  -5.720 -54.262  0.00  0.00     0.047 A 
HETATM   24  C   UNK     0       9.798   1.482 -49.772  0.00  0.00     0.047 A 
HETATM   25  C   UNK     0      16.751  -5.061 -51.976  0.00  0.00     0.136 A 
HETATM   26  C   UNK     0       9.476  -0.684 -50.774  0.00  0.00     0.136 A 
HETATM   27  C   UNK     0      17.568  -5.093 -53.101  0.00  0.00     0.104 A 
HETATM   28  C   UNK     0       9.279   0.693 -50.794  0.00  0.00     0.104 A 
HETATM   29  C   UNK     0      12.053  -3.654 -52.861  0.00  0.00     0.010 A 
HETATM   30  C   UNK     0      13.427  -3.600 -48.156  0.00  0.00     0.010 A 
HETATM   31  C   UNK     0      11.218  -5.576 -51.671  0.00  0.00     0.010 A 
HETATM   32  C   UNK     0      14.175  -2.096 -49.885  0.00  0.00     0.010 A 
HETATM   33  C   UNK     0      14.424  -4.489 -50.181  0.00  0.00     0.076 A 
HETATM   34  C   UNK     0      10.839  -3.351 -50.785  0.00  0.00     0.076 A 
HETATM   35  C   UNK     0      13.852  -4.688 -48.921  0.00  0.00     0.038 A 
HETATM   36  C   UNK     0      11.517  -2.812 -51.882  0.00  0.00     0.038 A 
HETATM   37  C   UNK     0      14.597  -3.185 -50.654  0.00  0.00     0.038 A 
HETATM   38  C   UNK     0      10.678  -4.736 -50.695  0.00  0.00     0.038 A 
ENDROOT
BRANCH  25  39
HETATM   39  O   UNK     0      17.270  -4.556 -50.817  0.00  0.00    -0.351 OA
HETATM   40  C   UNK     0      17.967  -5.467 -49.972  0.00  0.00     0.210 C 
ENDBRANCH  25  39
BRANCH  27  41
HETATM   41  O   UNK     0      18.819  -4.554 -53.070  0.00  0.00    -0.353 OA
HETATM   42  C   UNK     0      19.797  -5.139 -53.928  0.00  0.00     0.210 C 
ENDBRANCH  27  41
BRANCH  26  43
HETATM   43  O   UNK     0       8.843  -1.440 -51.720  0.00  0.00    -0.351 OA
HETATM   44  C   UNK     0       7.506  -1.842 -51.432  0.00  0.00     0.210 C 
ENDBRANCH  26  43
BRANCH  28  45
HETATM   45  O   UNK     0       8.546   1.277 -51.782  0.00  0.00    -0.353 OA
HETATM   46  C   UNK     0       7.309   1.877 -51.404  0.00  0.00     0.210 C 
ENDBRANCH  28  45
TORSDOF 4
ENDMDL
MODEL 8
REMARK VINA RESULT:      -6.7      3.893      6.147
REMARK  4 active torsions:
REMARK  status: ('A' for Active; 'I' for Inactive)
REMARK    1  A    between atoms: O_3  and  C_29 
REMARK    2  A    between atoms: O_4  and  C_30 
REMARK    3  A    between atoms: O_5  and  C_31 
REMARK    4  A    between atoms: O_6  and  C_32 
ROOT
HETATM    1  O   UNK     0      -3.037 -21.779 -50.717  0.00  0.00    -0.307 OA
HETATM    2  O   UNK     0       0.643 -20.927 -54.543  0.00  0.00    -0.307 OA
HETATM    3  N   UNK     0      -1.179 -23.406 -47.340  0.00  0.00     0.093 N 
HETATM    4  N   UNK     0      -1.255 -19.572 -58.019  0.00  0.00     0.093 N 
HETATM    5  C   UNK     0      -1.242 -22.602 -48.586  0.00  0.00     0.263 C 
HETATM    6  C   UNK     0      -1.106 -19.767 -56.554  0.00  0.00     0.263 C 
HETATM    7  C   UNK     0      -2.345 -21.549 -48.432  0.00  0.00     0.018 A 
HETATM    8  C   UNK     0       0.231 -19.162 -56.113  0.00  0.00     0.018 A 
HETATM    9  C   UNK     0      -0.796 -22.585 -46.190  0.00  0.00     0.277 C 
HETATM   10  C   UNK     0      -1.320 -18.150 -58.365  0.00  0.00     0.277 C 
HETATM   11  C   UNK     0      -2.567 -20.987 -47.157  0.00  0.00    -0.042 A 
HETATM   12  C   UNK     0       0.697 -18.003 -56.773  0.00  0.00    -0.042 A 
HETATM   13  C   UNK     0      -1.823 -21.476 -45.936  0.00  0.00     0.069 C 
HETATM   14  C   UNK     0      -0.035 -17.421 -57.960  0.00  0.00     0.069 C 
HETATM   15  C   UNK     0       0.122 -21.943 -48.964  0.00  0.00     0.079 C 
HETATM   16  C   UNK     0      -2.293 -19.179 -55.730  0.00  0.00     0.079 C 
HETATM   17  C   UNK     0      -3.172 -21.146 -49.501  0.00  0.00     0.121 A 
HETATM   18  C   UNK     0       1.035 -19.733 -55.105  0.00  0.00     0.121 A 
HETATM   19  C   UNK     0       0.313 -21.646 -50.432  0.00  0.00    -0.056 A 
HETATM   20  C   UNK     0      -2.534 -19.828 -54.387  0.00  0.00    -0.056 A 
HETATM   21  C   UNK     0      -0.345 -24.599 -47.453  0.00  0.00     0.310 C 
HETATM   22  C   UNK     0      -2.363 -20.322 -58.600  0.00  0.00     0.310 C 
HETATM   23  C   UNK     0      -3.571 -20.023 -46.978  0.00  0.00     0.047 A 
HETATM   24  C   UNK     0       1.919 -17.424 -56.401  0.00  0.00     0.047 A 
HETATM   25  C   UNK     0      -4.212 -20.229 -49.290  0.00  0.00     0.136 A 
HETATM   26  C   UNK     0       2.283 -19.176 -54.789  0.00  0.00     0.136 A 
HETATM   27  C   UNK     0      -4.391 -19.648 -48.039  0.00  0.00     0.104 A 
HETATM   28  C   UNK     0       2.709 -18.009 -55.415  0.00  0.00     0.104 A 
HETATM   29  C   UNK     0       0.514 -20.332 -50.872  0.00  0.00     0.010 A 
HETATM   30  C   UNK     0      -2.885 -21.181 -54.300  0.00  0.00     0.010 A 
HETATM   31  C   UNK     0       0.329 -22.682 -51.374  0.00  0.00     0.010 A 
HETATM   32  C   UNK     0      -2.446 -19.077 -53.209  0.00  0.00     0.010 A 
HETATM   33  C   UNK     0      -2.948 -21.042 -51.879  0.00  0.00     0.076 A 
HETATM   34  C   UNK     0       0.634 -21.084 -53.173  0.00  0.00     0.076 A 
HETATM   35  C   UNK     0      -3.085 -21.784 -53.057  0.00  0.00     0.038 A 
HETATM   36  C   UNK     0       0.664 -20.051 -52.233  0.00  0.00     0.038 A 
HETATM   37  C   UNK     0      -2.641 -19.681 -51.962  0.00  0.00     0.038 A 
HETATM   38  C   UNK     0       0.484 -22.402 -52.734  0.00  0.00     0.038 A 
ENDROOT
BRANCH  25  39
HETATM   39  O   UNK     0      -5.116 -19.937 -50.271  0.00  0.00    -0.351 OA
HETATM   40  C   UNK     0      -6.265 -20.774 -50.358  0.00  0.00     0.210 C 
ENDBRANCH  25  39
BRANCH  27  41
HETATM   41  O   UNK     0      -5.389 -18.746 -47.825  0.00  0.00    -0.353 OA
HETATM   42  C   UNK     0      -6.495 -19.178 -47.035  0.00  0.00     0.210 C 
ENDBRANCH  27  41
BRANCH  26  43
HETATM   43  O   UNK     0       3.141 -19.794 -53.924  0.00  0.00    -0.351 OA
HETATM   44  C   UNK     0       4.055 -20.732 -54.484  0.00  0.00     0.210 C 
ENDBRANCH  26  43
BRANCH  28  45
HETATM   45  O   UNK     0       3.913 -17.453 -55.106  0.00  0.00    -0.353 OA
HETATM   46  C   UNK     0       3.900 -16.302 -54.264  0.00  0.00     0.210 C 
ENDBRANCH  28  45
TORSDOF 4
ENDMDL
MODEL 9
REMARK VINA RESULT:      -6.6     19.389     24.166
REMARK  4 active torsions:
REMARK  status: ('A' for Active; 'I' for Inactive)
REMARK    1  A    between atoms: O_3  and  C_29 
REMARK    2  A    between atoms: O_4  and  C_30 
REMARK    3  A    between atoms: O_5  and  C_31 
REMARK    4  A    between atoms: O_6  and  C_32 
ROOT
HETATM    1  O   UNK     0      14.777  -5.369 -52.244  0.00  0.00    -0.307 OA
HETATM    2  O   UNK     0      12.209  -0.928 -50.633  0.00  0.00    -0.307 OA
HETATM    3  N   UNK     0      12.403  -8.718 -51.431  0.00  0.00     0.093 N 
HETATM    4  N   UNK     0      14.700   2.392 -51.180  0.00  0.00     0.093 N 
HETATM    5  C   UNK     0      12.653  -7.287 -51.736  0.00  0.00     0.263 C 
HETATM    6  C   UNK     0      14.191   1.027 -51.471  0.00  0.00     0.263 C 
HETATM    7  C   UNK     0      13.447  -7.198 -53.044  0.00  0.00     0.018 A 
HETATM    8  C   UNK     0      12.693   1.119 -51.784  0.00  0.00     0.018 A 
HETATM    9  C   UNK     0      11.566  -9.346 -52.455  0.00  0.00     0.277 C 
HETATM   10  C   UNK     0      14.585   3.266 -52.349  0.00  0.00     0.277 C 
HETATM   11  C   UNK     0      13.195  -8.154 -54.052  0.00  0.00    -0.042 A 
HETATM   12  C   UNK     0      12.216   2.265 -52.458  0.00  0.00    -0.042 A 
HETATM   13  C   UNK     0      12.249  -9.311 -53.826  0.00  0.00     0.069 C 
HETATM   14  C   UNK     0      13.122   3.431 -52.776  0.00  0.00     0.069 C 
HETATM   15  C   UNK     0      11.348  -6.434 -51.806  0.00  0.00     0.079 C 
HETATM   16  C   UNK     0      14.967   0.311 -52.620  0.00  0.00     0.079 C 
HETATM   17  C   UNK     0      14.445  -6.227 -53.270  0.00  0.00     0.121 A 
HETATM   18  C   UNK     0      11.767   0.130 -51.394  0.00  0.00     0.121 A 
HETATM   19  C   UNK     0      11.518  -4.963 -51.509  0.00  0.00    -0.056 A 
HETATM   20  C   UNK     0      14.946  -1.199 -52.573  0.00  0.00    -0.056 A 
HETATM   21  C   UNK     0      11.879  -8.948 -50.089  0.00  0.00     0.310 C 
HETATM   22  C   UNK     0      16.048   2.407 -50.623  0.00  0.00     0.310 C 
HETATM   23  C   UNK     0      13.905  -8.105 -55.261  0.00  0.00     0.047 A 
HETATM   24  C   UNK     0      10.850   2.387 -52.757  0.00  0.00     0.047 A 
HETATM   25  C   UNK     0      15.189  -6.233 -54.459  0.00  0.00     0.136 A 
HETATM   26  C   UNK     0      10.398   0.299 -51.647  0.00  0.00     0.136 A 
HETATM   27  C   UNK     0      14.899  -7.152 -55.462  0.00  0.00     0.104 A 
HETATM   28  C   UNK     0       9.946   1.410 -52.352  0.00  0.00     0.104 A 
HETATM   29  C   UNK     0      11.199  -4.001 -52.474  0.00  0.00     0.010 A 
HETATM   30  C   UNK     0      15.512  -1.888 -51.494  0.00  0.00     0.010 A 
HETATM   31  C   UNK     0      11.964  -4.536 -50.252  0.00  0.00     0.010 A 
HETATM   32  C   UNK     0      14.392  -1.935 -53.627  0.00  0.00     0.010 A 
HETATM   33  C   UNK     0      14.873  -4.013 -52.475  0.00  0.00     0.076 A 
HETATM   34  C   UNK     0      11.868  -2.221 -50.970  0.00  0.00     0.076 A 
HETATM   35  C   UNK     0      15.472  -3.283 -51.443  0.00  0.00     0.038 A 
HETATM   36  C   UNK     0      11.380  -2.640 -52.211  0.00  0.00     0.038 A 
HETATM   37  C   UNK     0      14.346  -3.331 -53.575  0.00  0.00     0.038 A 
HETATM   38  C   UNK     0      12.141  -3.176 -49.987  0.00  0.00     0.038 A 
ENDROOT
BRANCH  25  39
HETATM   39  O   UNK     0      16.256  -5.399 -54.637  0.00  0.00    -0.351 OA
HETATM   40  C   UNK     0      17.505  -5.828 -54.102  0.00  0.00     0.210 C 
ENDBRANCH  25  39
BRANCH  27  41
HETATM   41  O   UNK     0      15.606  -7.159 -56.626  0.00  0.00    -0.353 OA
HETATM   42  C   UNK     0      15.044  -7.880 -57.721  0.00  0.00     0.210 C 
ENDBRANCH  27  41
BRANCH  26  43
HETATM   43  O   UNK     0       9.468  -0.571 -51.150  0.00  0.00    -0.351 OA
HETATM   44  C   UNK     0       8.932  -0.275 -49.864  0.00  0.00     0.210 C 
ENDBRANCH  26  43
BRANCH  28  45
HETATM   45  O   UNK     0       8.620   1.577 -52.614  0.00  0.00    -0.353 OA
HETATM   46  C   UNK     0       8.117   0.994 -53.813  0.00  0.00     0.210 C 
ENDBRANCH  28  45
TORSDOF 4
ENDMDL
