MODEL 1
REMARK VINA RESULT:      -7.1      0.000      0.000
REMARK  4 active torsions:
REMARK  status: ('A' for Active; 'I' for Inactive)
REMARK    1  A    between atoms: O_3  and  C_29 
REMARK    2  A    between atoms: O_4  and  C_30 
REMARK    3  A    between atoms: O_5  and  C_31 
REMARK    4  A    between atoms: O_6  and  C_32 
ROOT
HETATM    1  O   UNK     0     172.096 157.767 163.483  0.00  0.00    -0.307 OA
HETATM    2  O   UNK     0     177.220 157.574 165.104  0.00  0.00    -0.307 OA
HETATM    3  N   UNK     0     171.065 161.727 162.606  0.00  0.00     0.093 N 
HETATM    4  N   UNK     0     178.165 153.663 166.256  0.00  0.00     0.093 N 
HETATM    5  C   UNK     0     171.994 160.578 162.754  0.00  0.00     0.263 C 
HETATM    6  C   UNK     0     177.427 154.701 165.493  0.00  0.00     0.263 C 
HETATM    7  C   UNK     0     171.501 159.433 161.864  0.00  0.00     0.018 A 
HETATM    8  C   UNK     0     178.438 155.547 164.711  0.00  0.00     0.018 A 
HETATM    9  C   UNK     0     171.070 162.248 161.239  0.00  0.00     0.277 C 
HETATM   10  C   UNK     0     178.861 152.736 165.361  0.00  0.00     0.277 C 
HETATM   11  C   UNK     0     170.882 159.753 160.635  0.00  0.00    -0.042 A 
HETATM   12  C   UNK     0     179.595 154.915 164.204  0.00  0.00    -0.042 A 
HETATM   13  C   UNK     0     170.604 161.184 160.239  0.00  0.00     0.069 C 
HETATM   14  C   UNK     0     179.902 153.467 164.506  0.00  0.00     0.069 C 
HETATM   15  C   UNK     0     173.479 160.942 162.440  0.00  0.00     0.079 C 
HETATM   16  C   UNK     0     176.332 154.111 164.550  0.00  0.00     0.079 C 
HETATM   17  C   UNK     0     171.603 158.076 162.235  0.00  0.00     0.121 A 
HETATM   18  C   UNK     0     178.283 156.934 164.510  0.00  0.00     0.121 A 
HETATM   19  C   UNK     0     174.516 160.077 163.116  0.00  0.00    -0.056 A 
HETATM   20  C   UNK     0     175.184 155.040 164.228  0.00  0.00    -0.056 A 
HETATM   21  C   UNK     0     171.279 162.784 163.589  0.00  0.00     0.310 C 
HETATM   22  C   UNK     0     177.343 152.958 167.233  0.00  0.00     0.310 C 
HETATM   23  C   UNK     0     170.415 158.730 159.796  0.00  0.00     0.047 A 
HETATM   24  C   UNK     0     180.545 155.658 163.488  0.00  0.00     0.047 A 
HETATM   25  C   UNK     0     171.074 157.071 161.412  0.00  0.00     0.136 A 
HETATM   26  C   UNK     0     179.274 157.671 163.846  0.00  0.00     0.136 A 
HETATM   27  C   UNK     0     170.508 157.397 160.184  0.00  0.00     0.104 A 
HETATM   28  C   UNK     0     180.387 157.029 163.312  0.00  0.00     0.104 A 
HETATM   29  C   UNK     0     175.418 159.324 162.357  0.00  0.00     0.010 A 
HETATM   30  C   UNK     0     174.340 155.510 165.242  0.00  0.00     0.010 A 
HETATM   31  C   UNK     0     174.615 160.041 164.513  0.00  0.00     0.010 A 
HETATM   32  C   UNK     0     174.926 155.418 162.906  0.00  0.00     0.010 A 
HETATM   33  C   UNK     0     173.069 156.800 163.628  0.00  0.00     0.076 A 
HETATM   34  C   UNK     0     176.427 158.436 164.375  0.00  0.00     0.076 A 
HETATM   35  C   UNK     0     173.294 156.386 164.944  0.00  0.00     0.038 A 
HETATM   36  C   UNK     0     176.362 158.501 162.980  0.00  0.00     0.038 A 
HETATM   37  C   UNK     0     173.882 156.300 162.607  0.00  0.00     0.038 A 
HETATM   38  C   UNK     0     175.560 159.224 165.136  0.00  0.00     0.038 A 
ENDROOT
BRANCH  25  39
HETATM   39  O   UNK     0     171.028 155.767 161.818  0.00  0.00    -0.351 OA
HETATM   40  C   UNK     0     169.858 155.350 162.515  0.00  0.00     0.210 C 
ENDBRANCH  25  39
BRANCH  27  41
HETATM   41  O   UNK     0     170.003 156.428 159.370  0.00  0.00    -0.353 OA
HETATM   42  C   UNK     0     170.093 156.649 157.964  0.00  0.00     0.210 C 
ENDBRANCH  27  41
BRANCH  26  43
HETATM   43  O   UNK     0     179.218 159.034 163.768  0.00  0.00    -0.351 OA
HETATM   44  C   UNK     0     179.851 159.765 164.815  0.00  0.00     0.210 C 
ENDBRANCH  26  43
BRANCH  28  45
HETATM   45  O   UNK     0     181.348 157.734 162.653  0.00  0.00    -0.353 OA
HETATM   46  C   UNK     0     181.348 157.658 161.230  0.00  0.00     0.210 C 
ENDBRANCH  28  45
TORSDOF 4
ENDMDL
MODEL 2
REMARK VINA RESULT:      -7.1      0.400      9.082
REMARK  4 active torsions:
REMARK  status: ('A' for Active; 'I' for Inactive)
REMARK    1  A    between atoms: O_3  and  C_29 
REMARK    2  A    between atoms: O_4  and  C_30 
REMARK    3  A    between atoms: O_5  and  C_31 
REMARK    4  A    between atoms: O_6  and  C_32 
ROOT
HETATM    1  O   UNK     0     177.143 157.484 164.927  0.00  0.00    -0.307 OA
HETATM    2  O   UNK     0     172.047 157.960 163.276  0.00  0.00    -0.307 OA
HETATM    3  N   UNK     0     177.964 153.465 165.757  0.00  0.00     0.093 N 
HETATM    4  N   UNK     0     171.139 162.008 162.724  0.00  0.00     0.093 N 
HETATM    5  C   UNK     0     177.264 154.584 165.077  0.00  0.00     0.263 C 
HETATM    6  C   UNK     0     172.034 160.824 162.784  0.00  0.00     0.263 C 
HETATM    7  C   UNK     0     178.309 155.461 164.379  0.00  0.00     0.018 A 
HETATM    8  C   UNK     0     171.520 159.771 161.797  0.00  0.00     0.018 A 
HETATM    9  C   UNK     0     178.644 152.595 164.796  0.00  0.00     0.277 C 
HETATM   10  C   UNK     0     171.176 162.640 161.403  0.00  0.00     0.277 C 
HETATM   11  C   UNK     0     179.453 154.841 163.831  0.00  0.00    -0.042 A 
HETATM   12  C   UNK     0     170.925 160.210 160.593  0.00  0.00    -0.042 A 
HETATM   13  C   UNK     0     179.716 153.364 164.015  0.00  0.00     0.069 C 
HETATM   14  C   UNK     0     170.692 161.676 160.314  0.00  0.00     0.069 C 
HETATM   15  C   UNK     0     176.164 154.107 164.078  0.00  0.00     0.079 C 
HETATM   16  C   UNK     0     173.532 161.170 162.515  0.00  0.00     0.079 C 
HETATM   17  C   UNK     0     178.196 156.864 164.292  0.00  0.00     0.121 A 
HETATM   18  C   UNK     0     171.579 158.386 162.055  0.00  0.00     0.121 A 
HETATM   19  C   UNK     0     175.049 155.092 163.823  0.00  0.00    -0.056 A 
HETATM   20  C   UNK     0     174.536 160.221 163.128  0.00  0.00    -0.056 A 
HETATM   21  C   UNK     0     177.111 152.706 166.665  0.00  0.00     0.310 C 
HETATM   22  C   UNK     0     171.372 162.973 163.793  0.00  0.00     0.310 C 
HETATM   23  C   UNK     0     180.432 155.612 163.187  0.00  0.00     0.047 A 
HETATM   24  C   UNK     0     170.438 159.275 159.667  0.00  0.00     0.047 A 
HETATM   25  C   UNK     0     179.215 157.625 163.700  0.00  0.00     0.136 A 
HETATM   26  C   UNK     0     171.031 157.469 161.146  0.00  0.00     0.136 A 
HETATM   27  C   UNK     0     180.314 156.998 163.125  0.00  0.00     0.104 A 
HETATM   28  C   UNK     0     170.488 157.912 159.943  0.00  0.00     0.104 A 
HETATM   29  C   UNK     0     174.818 155.587 162.535  0.00  0.00     0.010 A 
HETATM   30  C   UNK     0     174.616 160.066 164.518  0.00  0.00     0.010 A 
HETATM   31  C   UNK     0     174.204 155.500 164.863  0.00  0.00     0.010 A 
HETATM   32  C   UNK     0     175.427 159.509 162.317  0.00  0.00     0.010 A 
HETATM   33  C   UNK     0     176.385 158.426 164.264  0.00  0.00     0.076 A 
HETATM   34  C   UNK     0     172.992 156.957 163.351  0.00  0.00     0.076 A 
HETATM   35  C   UNK     0     175.529 159.172 165.080  0.00  0.00     0.038 A 
HETATM   36  C   UNK     0     173.803 156.520 162.300  0.00  0.00     0.038 A 
HETATM   37  C   UNK     0     176.339 158.609 162.879  0.00  0.00     0.038 A 
HETATM   38  C   UNK     0     173.187 156.428 164.629  0.00  0.00     0.038 A 
ENDROOT
BRANCH  25  39
HETATM   39  O   UNK     0     179.198 158.991 163.737  0.00  0.00    -0.351 OA
HETATM   40  C   UNK     0     179.834 159.614 164.849  0.00  0.00     0.210 C 
ENDBRANCH  25  39
BRANCH  27  41
HETATM   41  O   UNK     0     181.303 157.726 162.536  0.00  0.00    -0.353 OA
HETATM   42  C   UNK     0     181.348 157.725 161.110  0.00  0.00     0.210 C 
ENDBRANCH  27  41
BRANCH  26  43
HETATM   43  O   UNK     0     170.944 156.138 161.441  0.00  0.00    -0.351 OA
HETATM   44  C   UNK     0     169.755 155.699 162.093  0.00  0.00     0.210 C 
ENDBRANCH  26  43
BRANCH  28  45
HETATM   45  O   UNK     0     169.965 157.029 159.049  0.00  0.00    -0.353 OA
HETATM   46  C   UNK     0     170.097 157.351 157.666  0.00  0.00     0.210 C 
ENDBRANCH  28  45
TORSDOF 4
ENDMDL
MODEL 3
REMARK VINA RESULT:      -7.1     19.612     23.242
REMARK  4 active torsions:
REMARK  status: ('A' for Active; 'I' for Inactive)
REMARK    1  A    between atoms: O_3  and  C_29 
REMARK    2  A    between atoms: O_4  and  C_30 
REMARK    3  A    between atoms: O_5  and  C_31 
REMARK    4  A    between atoms: O_6  and  C_32 
ROOT
HETATM    1  O   UNK     0     175.241 167.464 179.797  0.00  0.00    -0.307 OA
HETATM    2  O   UNK     0     171.647 171.357 180.716  0.00  0.00    -0.307 OA
HETATM    3  N   UNK     0     178.064 168.810 177.016  0.00  0.00     0.093 N 
HETATM    4  N   UNK     0     168.663 169.916 183.273  0.00  0.00     0.093 N 
HETATM    5  C   UNK     0     177.056 168.966 178.095  0.00  0.00     0.263 C 
HETATM    6  C   UNK     0     170.030 169.973 182.696  0.00  0.00     0.263 C 
HETATM    7  C   UNK     0     177.493 168.121 179.297  0.00  0.00     0.018 A 
HETATM    8  C   UNK     0     170.571 171.397 182.859  0.00  0.00     0.018 A 
HETATM    9  C   UNK     0     179.370 169.330 177.422  0.00  0.00     0.277 C 
HETATM   10  C   UNK     0     168.679 170.179 184.714  0.00  0.00     0.277 C 
HETATM   11  C   UNK     0     178.873 167.991 179.564  0.00  0.00    -0.042 A 
HETATM   12  C   UNK     0     170.204 172.130 184.010  0.00  0.00    -0.042 A 
HETATM   13  C   UNK     0     179.916 168.570 178.636  0.00  0.00     0.069 C 
HETATM   14  C   UNK     0     169.217 171.583 185.014  0.00  0.00     0.069 C 
HETATM   15  C   UNK     0     176.816 170.453 178.504  0.00  0.00     0.079 C 
HETATM   16  C   UNK     0     171.005 168.922 183.314  0.00  0.00     0.079 C 
HETATM   17  C   UNK     0     176.578 167.437 180.125  0.00  0.00     0.121 A 
HETATM   18  C   UNK     0     171.387 172.022 181.893  0.00  0.00     0.121 A 
HETATM   19  C   UNK     0     175.462 170.750 179.102  0.00  0.00    -0.056 A 
HETATM   20  C   UNK     0     172.152 168.501 182.426  0.00  0.00    -0.056 A 
HETATM   21  C   UNK     0     177.638 169.358 175.733  0.00  0.00     0.310 C 
HETATM   22  C   UNK     0     167.944 168.686 182.956  0.00  0.00     0.310 C 
HETATM   23  C   UNK     0     179.310 167.222 180.654  0.00  0.00     0.047 A 
HETATM   24  C   UNK     0     170.676 173.438 184.191  0.00  0.00     0.047 A 
HETATM   25  C   UNK     0     177.036 166.623 181.171  0.00  0.00     0.136 A 
HETATM   26  C   UNK     0     171.797 173.353 182.061  0.00  0.00     0.136 A 
HETATM   27  C   UNK     0     178.396 166.540 181.451  0.00  0.00     0.104 A 
HETATM   28  C   UNK     0     171.467 174.047 183.221  0.00  0.00     0.104 A 
HETATM   29  C   UNK     0     175.354 171.252 180.404  0.00  0.00     0.010 A 
HETATM   30  C   UNK     0     171.912 167.855 181.206  0.00  0.00     0.010 A 
HETATM   31  C   UNK     0     174.293 170.562 178.353  0.00  0.00     0.010 A 
HETATM   32  C   UNK     0     173.476 168.720 182.824  0.00  0.00     0.010 A 
HETATM   33  C   UNK     0     174.294 167.752 180.757  0.00  0.00     0.076 A 
HETATM   34  C   UNK     0     172.936 171.271 180.233  0.00  0.00     0.076 A 
HETATM   35  C   UNK     0     172.974 167.488 180.378  0.00  0.00     0.038 A 
HETATM   36  C   UNK     0     174.101 171.503 180.971  0.00  0.00     0.038 A 
HETATM   37  C   UNK     0     174.540 168.357 181.993  0.00  0.00     0.038 A 
HETATM   38  C   UNK     0     173.041 170.817 178.916  0.00  0.00     0.038 A 
ENDROOT
BRANCH  25  39
HETATM   39  O   UNK     0     176.180 165.837 181.890  0.00  0.00    -0.351 OA
HETATM   40  C   UNK     0     175.993 164.501 181.431  0.00  0.00     0.210 C 
ENDBRANCH  25  39
BRANCH  27  41
HETATM   41  O   UNK     0     178.851 165.763 182.473  0.00  0.00    -0.353 OA
HETATM   42  C   UNK     0     178.812 166.326 183.783  0.00  0.00     0.210 C 
ENDBRANCH  27  41
BRANCH  26  43
HETATM   43  O   UNK     0     172.461 174.025 181.074  0.00  0.00    -0.351 OA
HETATM   44  C   UNK     0     171.662 174.671 180.087  0.00  0.00     0.210 C 
ENDBRANCH  26  43
BRANCH  28  45
HETATM   45  O   UNK     0     171.871 175.335 183.400  0.00  0.00    -0.353 OA
HETATM   46  C   UNK     0     173.032 175.545 184.200  0.00  0.00     0.210 C 
ENDBRANCH  28  45
TORSDOF 4
ENDMDL
MODEL 4
REMARK VINA RESULT:      -7.0     24.146     28.665
REMARK  4 active torsions:
REMARK  status: ('A' for Active; 'I' for Inactive)
REMARK    1  A    between atoms: O_3  and  C_29 
REMARK    2  A    between atoms: O_4  and  C_30 
REMARK    3  A    between atoms: O_5  and  C_31 
REMARK    4  A    between atoms: O_6  and  C_32 
ROOT
HETATM    1  O   UNK     0     145.342 165.227 165.124  0.00  0.00    -0.307 OA
HETATM    2  O   UNK     0     150.462 165.236 163.478  0.00  0.00    -0.307 OA
HETATM    3  N   UNK     0     144.156 169.145 165.993  0.00  0.00     0.093 N 
HETATM    4  N   UNK     0     151.737 161.294 162.887  0.00  0.00     0.093 N 
HETATM    5  C   UNK     0     144.956 168.102 165.303  0.00  0.00     0.263 C 
HETATM    6  C   UNK     0     150.738 162.390 162.957  0.00  0.00     0.263 C 
HETATM    7  C   UNK     0     143.997 167.140 164.593  0.00  0.00     0.018 A 
HETATM    8  C   UNK     0     151.154 163.496 161.982  0.00  0.00     0.018 A 
HETATM    9  C   UNK     0     143.400 169.958 165.039  0.00  0.00     0.277 C 
HETATM   10  C   UNK     0     151.760 160.675 161.560  0.00  0.00     0.277 C 
HETATM   11  C   UNK     0     142.801 167.659 164.050  0.00  0.00    -0.042 A 
HETATM   12  C   UNK     0     151.788 163.126 160.775  0.00  0.00    -0.042 A 
HETATM   13  C   UNK     0     142.404 169.103 164.249  0.00  0.00     0.069 C 
HETATM   14  C   UNK     0     152.154 161.690 160.482  0.00  0.00     0.069 C 
HETATM   15  C   UNK     0     146.009 168.688 164.311  0.00  0.00     0.079 C 
HETATM   16  C   UNK     0     149.277 161.912 162.682  0.00  0.00     0.079 C 
HETATM   17  C   UNK     0     144.238 165.754 164.492  0.00  0.00     0.121 A 
HETATM   18  C   UNK     0     150.968 164.867 162.253  0.00  0.00     0.121 A 
HETATM   19  C   UNK     0     147.210 167.812 164.048  0.00  0.00    -0.056 A 
HETATM   20  C   UNK     0     148.190 162.758 163.302  0.00  0.00    -0.056 A 
HETATM   21  C   UNK     0     144.935 169.970 166.910  0.00  0.00     0.310 C 
HETATM   22  C   UNK     0     151.592 160.300 163.946  0.00  0.00     0.310 C 
HETATM   23  C   UNK     0     141.897 166.807 163.397  0.00  0.00     0.047 A 
HETATM   24  C   UNK     0     152.189 164.111 159.859  0.00  0.00     0.047 A 
HETATM   25  C   UNK     0     143.293 164.909 163.891  0.00  0.00     0.136 A 
HETATM   26  C   UNK     0     151.431 165.839 161.355  0.00  0.00     0.136 A 
HETATM   27  C   UNK     0     142.142 165.439 163.320  0.00  0.00     0.104 A 
HETATM   28  C   UNK     0     152.013 165.461 160.149  0.00  0.00     0.104 A 
HETATM   29  C   UNK     0     147.486 167.352 162.755  0.00  0.00     0.010 A 
HETATM   30  C   UNK     0     148.095 162.891 164.693  0.00  0.00     0.010 A 
HETATM   31  C   UNK     0     148.087 167.472 165.086  0.00  0.00     0.010 A 
HETATM   32  C   UNK     0     147.239 163.394 162.497  0.00  0.00     0.010 A 
HETATM   33  C   UNK     0     146.184 164.365 164.452  0.00  0.00     0.076 A 
HETATM   34  C   UNK     0     149.429 166.148 163.561  0.00  0.00     0.076 A 
HETATM   35  C   UNK     0     147.104 163.692 165.263  0.00  0.00     0.038 A 
HETATM   36  C   UNK     0     148.583 166.519 162.513  0.00  0.00     0.038 A 
HETATM   37  C   UNK     0     146.248 164.201 163.066  0.00  0.00     0.038 A 
HETATM   38  C   UNK     0     149.185 166.644 164.844  0.00  0.00     0.038 A 
ENDROOT
BRANCH  25  39
HETATM   39  O   UNK     0     143.435 163.550 163.914  0.00  0.00    -0.351 OA
HETATM   40  C   UNK     0     142.824 162.857 164.998  0.00  0.00     0.210 C 
ENDBRANCH  25  39
BRANCH  27  41
HETATM   41  O   UNK     0     141.224 164.630 162.722  0.00  0.00    -0.353 OA
HETATM   42  C   UNK     0     141.224 164.591 161.296  0.00  0.00     0.210 C 
ENDBRANCH  27  41
BRANCH  26  43
HETATM   43  O   UNK     0     151.396 167.170 161.663  0.00  0.00    -0.351 OA
HETATM   44  C   UNK     0     152.531 167.705 162.338  0.00  0.00     0.210 C 
ENDBRANCH  26  43
BRANCH  28  45
HETATM   45  O   UNK     0     152.454 166.397 159.264  0.00  0.00    -0.353 OA
HETATM   46  C   UNK     0     152.507 166.018 157.891  0.00  0.00     0.210 C 
ENDBRANCH  28  45
TORSDOF 4
ENDMDL
MODEL 5
REMARK VINA RESULT:      -7.0     29.281     33.409
REMARK  4 active torsions:
REMARK  status: ('A' for Active; 'I' for Inactive)
REMARK    1  A    between atoms: O_3  and  C_29 
REMARK    2  A    between atoms: O_4  and  C_30 
REMARK    3  A    between atoms: O_5  and  C_31 
REMARK    4  A    between atoms: O_6  and  C_32 
ROOT
HETATM    1  O   UNK     0     150.997 150.986 180.673  0.00  0.00    -0.307 OA
HETATM    2  O   UNK     0     147.441 154.885 179.643  0.00  0.00    -0.307 OA
HETATM    3  N   UNK     0     153.944 152.442 183.264  0.00  0.00     0.093 N 
HETATM    4  N   UNK     0     144.660 153.520 176.829  0.00  0.00     0.093 N 
HETATM    5  C   UNK     0     152.587 152.385 182.663  0.00  0.00     0.263 C 
HETATM    6  C   UNK     0     145.647 153.372 177.928  0.00  0.00     0.263 C 
HETATM    7  C   UNK     0     152.036 150.965 182.835  0.00  0.00     0.018 A 
HETATM    8  C   UNK     0     145.195 154.234 179.112  0.00  0.00     0.018 A 
HETATM    9  C   UNK     0     153.902 152.197 184.706  0.00  0.00     0.277 C 
HETATM   10  C   UNK     0     143.343 153.011 177.220  0.00  0.00     0.277 C 
HETATM   11  C   UNK     0     152.377 150.246 184.001  0.00  0.00    -0.042 A 
HETATM   12  C   UNK     0     143.811 154.375 179.353  0.00  0.00    -0.042 A 
HETATM   13  C   UNK     0     153.351 150.800 185.015  0.00  0.00     0.069 C 
HETATM   14  C   UNK     0     142.781 153.790 178.415  0.00  0.00     0.069 C 
HETATM   15  C   UNK     0     151.608 153.449 183.250  0.00  0.00     0.079 C 
HETATM   16  C   UNK     0     145.871 151.889 178.360  0.00  0.00     0.079 C 
HETATM   17  C   UNK     0     151.233 150.333 181.863  0.00  0.00     0.121 A 
HETATM   18  C   UNK     0     146.100 154.923 179.947  0.00  0.00     0.121 A 
HETATM   19  C   UNK     0     150.478 153.864 182.338  0.00  0.00    -0.056 A 
HETATM   20  C   UNK     0     147.214 151.592 178.985  0.00  0.00    -0.056 A 
HETATM   21  C   UNK     0     154.676 153.662 182.943  0.00  0.00     0.310 C 
HETATM   22  C   UNK     0     145.105 152.952 175.561  0.00  0.00     0.310 C 
HETATM   23  C   UNK     0     151.894 148.943 184.191  0.00  0.00     0.047 A 
HETATM   24  C   UNK     0     143.359 155.161 180.424  0.00  0.00     0.047 A 
HETATM   25  C   UNK     0     150.811 149.007 182.041  0.00  0.00     0.136 A 
HETATM   26  C   UNK     0     145.627 155.754 180.974  0.00  0.00     0.136 A 
HETATM   27  C   UNK     0     151.117 148.326 183.214  0.00  0.00     0.104 A 
HETATM   28  C   UNK     0     144.263 155.848 181.229  0.00  0.00     0.104 A 
HETATM   29  C   UNK     0     149.147 153.657 182.714  0.00  0.00     0.010 A 
HETATM   30  C   UNK     0     148.397 151.765 178.255  0.00  0.00     0.010 A 
HETATM   31  C   UNK     0     150.743 154.495 181.116  0.00  0.00     0.010 A 
HETATM   32  C   UNK     0     147.296 151.104 180.295  0.00  0.00     0.010 A 
HETATM   33  C   UNK     0     149.717 151.071 180.167  0.00  0.00     0.076 A 
HETATM   34  C   UNK     0     148.371 154.604 180.623  0.00  0.00     0.076 A 
HETATM   35  C   UNK     0     149.637 151.511 178.843  0.00  0.00     0.038 A 
HETATM   36  C   UNK     0     148.099 154.015 181.861  0.00  0.00     0.038 A 
HETATM   37  C   UNK     0     148.538 150.854 180.887  0.00  0.00     0.038 A 
HETATM   38  C   UNK     0     149.697 154.858 180.264  0.00  0.00     0.038 A 
ENDROOT
BRANCH  25  39
HETATM   39  O   UNK     0     150.162 148.326 181.051  0.00  0.00    -0.351 OA
HETATM   40  C   UNK     0     150.972 147.682 180.073  0.00  0.00     0.210 C 
ENDBRANCH  25  39
BRANCH  27  41
HETATM   41  O   UNK     0     150.701 147.043 183.404  0.00  0.00    -0.353 OA
HETATM   42  C   UNK     0     149.583 146.844 184.267  0.00  0.00     0.210 C 
ENDBRANCH  27  41
BRANCH  26  43
HETATM   43  O   UNK     0     146.475 156.544 181.698  0.00  0.00    -0.351 OA
HETATM   44  C   UNK     0     146.677 157.873 181.225  0.00  0.00     0.210 C 
ENDBRANCH  26  43
BRANCH  28  45
HETATM   45  O   UNK     0     143.795 156.642 182.232  0.00  0.00    -0.353 OA
HETATM   46  C   UNK     0     143.857 156.117 183.556  0.00  0.00     0.210 C 
ENDBRANCH  28  45
TORSDOF 4
ENDMDL
MODEL 6
REMARK VINA RESULT:      -7.0      2.722      4.460
REMARK  4 active torsions:
REMARK  status: ('A' for Active; 'I' for Inactive)
REMARK    1  A    between atoms: O_3  and  C_29 
REMARK    2  A    between atoms: O_4  and  C_30 
REMARK    3  A    between atoms: O_5  and  C_31 
REMARK    4  A    between atoms: O_6  and  C_32 
ROOT
HETATM    1  O   UNK     0     171.880 159.115 163.544  0.00  0.00    -0.307 OA
HETATM    2  O   UNK     0     176.295 157.487 166.148  0.00  0.00    -0.307 OA
HETATM    3  N   UNK     0     168.970 160.260 166.326  0.00  0.00     0.093 N 
HETATM    4  N   UNK     0     179.096 156.071 163.379  0.00  0.00     0.093 N 
HETATM    5  C   UNK     0     170.356 160.034 165.841  0.00  0.00     0.263 C 
HETATM    6  C   UNK     0     177.953 156.902 163.833  0.00  0.00     0.263 C 
HETATM    7  C   UNK     0     170.562 160.844 164.557  0.00  0.00     0.018 A 
HETATM    8  C   UNK     0     178.403 157.741 165.034  0.00  0.00     0.018 A 
HETATM    9  C   UNK     0     168.752 161.660 166.691  0.00  0.00     0.277 C 
HETATM   10  C   UNK     0     180.204 156.900 162.900  0.00  0.00     0.277 C 
HETATM   11  C   UNK     0     169.911 162.091 164.434  0.00  0.00    -0.042 A 
HETATM   12  C   UNK     0     179.737 158.205 165.070  0.00  0.00    -0.042 A 
HETATM   13  C   UNK     0     168.943 162.584 165.484  0.00  0.00     0.069 C 
HETATM   14  C   UNK     0     180.741 157.804 164.015  0.00  0.00     0.069 C 
HETATM   15  C   UNK     0     171.444 160.374 166.907  0.00  0.00     0.079 C 
HETATM   16  C   UNK     0     177.358 157.802 162.704  0.00  0.00     0.079 C 
HETATM   17  C   UNK     0     171.342 160.381 163.477  0.00  0.00     0.121 A 
HETATM   18  C   UNK     0     177.556 158.037 166.122  0.00  0.00     0.121 A 
HETATM   19  C   UNK     0     172.755 159.641 166.751  0.00  0.00    -0.056 A 
HETATM   20  C   UNK     0     175.907 158.186 162.878  0.00  0.00    -0.056 A 
HETATM   21  C   UNK     0     168.568 159.353 167.395  0.00  0.00     0.310 C 
HETATM   22  C   UNK     0     178.727 155.047 162.408  0.00  0.00     0.310 C 
HETATM   23  C   UNK     0     170.074 162.858 163.271  0.00  0.00     0.047 A 
HETATM   24  C   UNK     0     180.186 158.971 166.156  0.00  0.00     0.047 A 
HETATM   25  C   UNK     0     171.442 161.133 162.297  0.00  0.00     0.136 A 
HETATM   26  C   UNK     0     178.041 158.751 167.228  0.00  0.00     0.136 A 
HETATM   27  C   UNK     0     170.834 162.380 162.207  0.00  0.00     0.104 A 
HETATM   28  C   UNK     0     179.343 159.240 167.230  0.00  0.00     0.104 A 
HETATM   29  C   UNK     0     173.944 160.347 166.536  0.00  0.00     0.010 A 
HETATM   30  C   UNK     0     174.906 157.207 162.897  0.00  0.00     0.010 A 
HETATM   31  C   UNK     0     172.809 158.245 166.855  0.00  0.00     0.010 A 
HETATM   32  C   UNK     0     175.537 159.532 162.987  0.00  0.00     0.010 A 
HETATM   33  C   UNK     0     173.208 158.905 163.237  0.00  0.00     0.076 A 
HETATM   34  C   UNK     0     175.195 158.274 166.424  0.00  0.00     0.076 A 
HETATM   35  C   UNK     0     173.569 157.563 163.080  0.00  0.00     0.038 A 
HETATM   36  C   UNK     0     175.155 159.670 166.365  0.00  0.00     0.038 A 
HETATM   37  C   UNK     0     174.198 159.890 163.176  0.00  0.00     0.038 A 
HETATM   38  C   UNK     0     174.019 157.567 166.688  0.00  0.00     0.038 A 
ENDROOT
BRANCH  25  39
HETATM   39  O   UNK     0     172.068 160.638 161.188  0.00  0.00    -0.351 OA
HETATM   40  C   UNK     0     171.258 159.930 160.254  0.00  0.00     0.210 C 
ENDBRANCH  25  39
BRANCH  27  41
HETATM   41  O   UNK     0     170.935 163.124 161.071  0.00  0.00    -0.353 OA
HETATM   42  C   UNK     0     169.725 163.407 160.371  0.00  0.00     0.210 C 
ENDBRANCH  27  41
BRANCH  26  43
HETATM   43  O   UNK     0     177.287 158.921 168.354  0.00  0.00    -0.351 OA
HETATM   44  C   UNK     0     177.396 157.918 169.360  0.00  0.00     0.210 C 
ENDBRANCH  26  43
BRANCH  28  45
HETATM   45  O   UNK     0     179.820 159.946 168.293  0.00  0.00    -0.353 OA
HETATM   46  C   UNK     0     180.908 159.374 169.016  0.00  0.00     0.210 C 
ENDBRANCH  28  45
TORSDOF 4
ENDMDL
MODEL 7
REMARK VINA RESULT:      -7.0     19.417     23.394
REMARK  4 active torsions:
REMARK  status: ('A' for Active; 'I' for Inactive)
REMARK    1  A    between atoms: O_3  and  C_29 
REMARK    2  A    between atoms: O_4  and  C_30 
REMARK    3  A    between atoms: O_5  and  C_31 
REMARK    4  A    between atoms: O_6  and  C_32 
ROOT
HETATM    1  O   UNK     0     152.050 150.506 168.370  0.00  0.00    -0.307 OA
HETATM    2  O   UNK     0     156.342 150.794 171.597  0.00  0.00    -0.307 OA
HETATM    3  N   UNK     0     153.220 151.286 164.429  0.00  0.00     0.093 N 
HETATM    4  N   UNK     0     155.127 150.301 175.571  0.00  0.00     0.093 N 
HETATM    5  C   UNK     0     153.417 150.824 165.826  0.00  0.00     0.263 C 
HETATM    6  C   UNK     0     155.028 150.121 174.101  0.00  0.00     0.263 C 
HETATM    7  C   UNK     0     152.390 149.727 166.128  0.00  0.00     0.018 A 
HETATM    8  C   UNK     0     156.323 149.474 173.598  0.00  0.00     0.018 A 
HETATM    9  C   UNK     0     153.481 150.213 163.468  0.00  0.00     0.277 C 
HETATM   10  C   UNK     0     155.229 149.013 176.262  0.00  0.00     0.277 C 
HETATM   11  C   UNK     0     152.015 148.850 165.087  0.00  0.00    -0.042 A 
HETATM   12  C   UNK     0     156.977 148.540 174.432  0.00  0.00    -0.042 A 
HETATM   13  C   UNK     0     152.518 149.039 163.674  0.00  0.00     0.069 C 
HETATM   14  C   UNK     0     156.489 148.253 175.833  0.00  0.00     0.069 C 
HETATM   15  C   UNK     0     154.871 150.334 166.114  0.00  0.00     0.079 C 
HETATM   16  C   UNK     0     153.776 149.299 173.662  0.00  0.00     0.079 C 
HETATM   17  C   UNK     0     151.776 149.579 167.388  0.00  0.00     0.121 A 
HETATM   18  C   UNK     0     156.910 149.798 172.357  0.00  0.00     0.121 A 
HETATM   19  C   UNK     0     155.314 150.428 167.554  0.00  0.00    -0.056 A 
HETATM   20  C   UNK     0     153.276 149.575 172.263  0.00  0.00    -0.056 A 
HETATM   21  C   UNK     0     153.963 152.498 164.102  0.00  0.00     0.310 C 
HETATM   22  C   UNK     0     154.068 151.133 176.132  0.00  0.00     0.310 C 
HETATM   23  C   UNK     0     151.075 147.836 165.325  0.00  0.00     0.047 A 
HETATM   24  C   UNK     0     158.167 147.931 174.008  0.00  0.00     0.047 A 
HETATM   25  C   UNK     0     150.792 148.600 167.590  0.00  0.00     0.136 A 
HETATM   26  C   UNK     0     158.133 149.226 171.978  0.00  0.00     0.136 A 
HETATM   27  C   UNK     0     150.465 147.714 166.570  0.00  0.00     0.104 A 
HETATM   28  C   UNK     0     158.743 148.273 172.788  0.00  0.00     0.104 A 
HETATM   29  C   UNK     0     155.684 149.279 168.261  0.00  0.00     0.010 A 
HETATM   30  C   UNK     0     152.810 150.848 171.909  0.00  0.00     0.010 A 
HETATM   31  C   UNK     0     155.395 151.670 168.197  0.00  0.00     0.010 A 
HETATM   32  C   UNK     0     153.238 148.553 171.308  0.00  0.00     0.010 A 
HETATM   33  C   UNK     0     152.379 150.093 169.645  0.00  0.00     0.076 A 
HETATM   34  C   UNK     0     156.105 150.597 170.252  0.00  0.00     0.076 A 
HETATM   35  C   UNK     0     152.370 151.105 170.610  0.00  0.00     0.038 A 
HETATM   36  C   UNK     0     156.069 149.359 169.603  0.00  0.00     0.038 A 
HETATM   37  C   UNK     0     152.802 148.811 170.005  0.00  0.00     0.038 A 
HETATM   38  C   UNK     0     155.783 151.752 169.536  0.00  0.00     0.038 A 
ENDROOT
BRANCH  25  39
HETATM   39  O   UNK     0     150.079 148.535 168.754  0.00  0.00    -0.351 OA
HETATM   40  C   UNK     0     148.874 149.292 168.815  0.00  0.00     0.210 C 
ENDBRANCH  25  39
BRANCH  27  41
HETATM   41  O   UNK     0     149.521 146.751 166.759  0.00  0.00    -0.353 OA
HETATM   42  C   UNK     0     149.544 145.636 165.869  0.00  0.00     0.210 C 
ENDBRANCH  27  41
BRANCH  26  43
HETATM   43  O   UNK     0     158.793 149.633 170.854  0.00  0.00    -0.351 OA
HETATM   44  C   UNK     0     159.685 150.736 170.995  0.00  0.00     0.210 C 
ENDBRANCH  26  43
BRANCH  28  45
HETATM   45  O   UNK     0     159.924 147.702 172.423  0.00  0.00    -0.353 OA
HETATM   46  C   UNK     0     161.077 148.051 173.184  0.00  0.00     0.210 C 
ENDBRANCH  28  45
TORSDOF 4
ENDMDL
MODEL 8
REMARK VINA RESULT:      -7.0      8.429     11.130
REMARK  4 active torsions:
REMARK  status: ('A' for Active; 'I' for Inactive)
REMARK    1  A    between atoms: O_3  and  C_29 
REMARK    2  A    between atoms: O_4  and  C_30 
REMARK    3  A    between atoms: O_5  and  C_31 
REMARK    4  A    between atoms: O_6  and  C_32 
ROOT
HETATM    1  O   UNK     0     165.377 157.339 159.331  0.00  0.00    -0.307 OA
HETATM    2  O   UNK     0     165.126 152.562 161.786  0.00  0.00    -0.307 OA
HETATM    3  N   UNK     0     161.790 159.405 159.943  0.00  0.00     0.093 N 
HETATM    4  N   UNK     0     168.594 150.379 160.933  0.00  0.00     0.093 N 
HETATM    5  C   UNK     0     162.857 158.430 160.282  0.00  0.00     0.263 C 
HETATM    6  C   UNK     0     167.795 151.615 161.130  0.00  0.00     0.263 C 
HETATM    7  C   UNK     0     164.198 159.171 160.333  0.00  0.00     0.018 A 
HETATM    8  C   UNK     0     167.183 151.584 162.535  0.00  0.00     0.018 A 
HETATM    9  C   UNK     0     161.647 160.426 160.982  0.00  0.00     0.277 C 
HETATM   10  C   UNK     0     169.723 150.318 161.864  0.00  0.00     0.277 C 
HETATM   11  C   UNK     0     164.214 160.504 160.800  0.00  0.00    -0.042 A 
HETATM   12  C   UNK     0     167.924 150.988 163.579  0.00  0.00    -0.042 A 
HETATM   13  C   UNK     0     162.938 161.238 161.142  0.00  0.00     0.069 C 
HETATM   14  C   UNK     0     169.241 150.294 163.319  0.00  0.00     0.069 C 
HETATM   15  C   UNK     0     162.586 157.656 161.610  0.00  0.00     0.079 C 
HETATM   16  C   UNK     0     168.615 152.923 160.897  0.00  0.00     0.079 C 
HETATM   17  C   UNK     0     165.409 158.594 159.898  0.00  0.00     0.121 A 
HETATM   18  C   UNK     0     165.899 152.090 162.822  0.00  0.00     0.121 A 
HETATM   19  C   UNK     0     163.240 156.299 161.714  0.00  0.00    -0.056 A 
HETATM   20  C   UNK     0     167.805 154.130 160.484  0.00  0.00    -0.056 A 
HETATM   21  C   UNK     0     160.511 158.784 159.616  0.00  0.00     0.310 C 
HETATM   22  C   UNK     0     169.019 150.169 159.553  0.00  0.00     0.310 C 
HETATM   23  C   UNK     0     165.423 161.214 160.857  0.00  0.00     0.047 A 
HETATM   24  C   UNK     0     167.395 150.936 164.877  0.00  0.00     0.047 A 
HETATM   25  C   UNK     0     166.596 159.341 159.903  0.00  0.00     0.136 A 
HETATM   26  C   UNK     0     165.361 151.973 164.112  0.00  0.00     0.136 A 
HETATM   27  C   UNK     0     166.606 160.636 160.408  0.00  0.00     0.104 A 
HETATM   28  C   UNK     0     166.118 151.424 165.142  0.00  0.00     0.104 A 
HETATM   29  C   UNK     0     164.166 156.031 162.729  0.00  0.00     0.010 A 
HETATM   30  C   UNK     0     167.087 154.131 159.282  0.00  0.00     0.010 A 
HETATM   31  C   UNK     0     162.907 155.275 160.818  0.00  0.00     0.010 A 
HETATM   32  C   UNK     0     167.789 155.281 161.280  0.00  0.00     0.010 A 
HETATM   33  C   UNK     0     166.270 156.369 159.736  0.00  0.00     0.076 A 
HETATM   34  C   UNK     0     164.489 153.781 161.889  0.00  0.00     0.076 A 
HETATM   35  C   UNK     0     166.322 155.239 158.914  0.00  0.00     0.038 A 
HETATM   36  C   UNK     0     164.793 154.785 162.812  0.00  0.00     0.038 A 
HETATM   37  C   UNK     0     167.020 156.390 160.915  0.00  0.00     0.038 A 
HETATM   38  C   UNK     0     163.530 154.027 160.903  0.00  0.00     0.038 A 
ENDROOT
BRANCH  25  39
HETATM   39  O   UNK     0     167.747 158.855 159.350  0.00  0.00    -0.351 OA
HETATM   40  C   UNK     0     167.962 159.125 157.968  0.00  0.00     0.210 C 
ENDBRANCH  25  39
BRANCH  27  41
HETATM   41  O   UNK     0     167.756 161.367 160.431  0.00  0.00    -0.353 OA
HETATM   42  C   UNK     0     168.122 161.962 161.674  0.00  0.00     0.210 C 
ENDBRANCH  27  41
BRANCH  26  43
HETATM   43  O   UNK     0     164.066 152.320 164.379  0.00  0.00    -0.351 OA
HETATM   44  C   UNK     0     163.081 151.303 164.217  0.00  0.00     0.210 C 
ENDBRANCH  26  43
BRANCH  28  45
HETATM   45  O   UNK     0     165.610 151.318 166.400  0.00  0.00    -0.353 OA
HETATM   46  C   UNK     0     166.018 150.192 167.173  0.00  0.00     0.210 C 
ENDBRANCH  28  45
TORSDOF 4
ENDMDL
MODEL 9
REMARK VINA RESULT:      -7.0     16.116     21.944
REMARK  4 active torsions:
REMARK  status: ('A' for Active; 'I' for Inactive)
REMARK    1  A    between atoms: O_3  and  C_29 
REMARK    2  A    between atoms: O_4  and  C_30 
REMARK    3  A    between atoms: O_5  and  C_31 
REMARK    4  A    between atoms: O_6  and  C_32 
ROOT
HETATM    1  O   UNK     0     157.349 165.218 159.303  0.00  0.00    -0.307 OA
HETATM    2  O   UNK     0     157.628 170.051 161.643  0.00  0.00    -0.307 OA
HETATM    3  N   UNK     0     160.904 163.126 160.007  0.00  0.00     0.093 N 
HETATM    4  N   UNK     0     154.195 172.252 160.698  0.00  0.00     0.093 N 
HETATM    5  C   UNK     0     159.845 164.121 160.309  0.00  0.00     0.263 C 
HETATM    6  C   UNK     0     154.978 171.012 160.934  0.00  0.00     0.263 C 
HETATM    7  C   UNK     0     158.495 163.397 160.363  0.00  0.00     0.018 A 
HETATM    8  C   UNK     0     155.574 171.070 162.344  0.00  0.00     0.018 A 
HETATM    9  C   UNK     0     161.023 162.130 161.072  0.00  0.00     0.277 C 
HETATM   10  C   UNK     0     153.057 172.348 161.614  0.00  0.00     0.277 C 
HETATM   11  C   UNK     0     158.458 162.077 160.863  0.00  0.00    -0.042 A 
HETATM   12  C   UNK     0     154.829 171.701 163.365  0.00  0.00    -0.042 A 
HETATM   13  C   UNK     0     159.722 161.337 161.238  0.00  0.00     0.069 C 
HETATM   14  C   UNK     0     153.524 172.402 163.073  0.00  0.00     0.069 C 
HETATM   15  C   UNK     0     160.110 164.925 161.621  0.00  0.00     0.079 C 
HETATM   16  C   UNK     0     154.146 169.708 160.724  0.00  0.00     0.079 C 
HETATM   17  C   UNK     0     157.296 163.978 159.901  0.00  0.00     0.121 A 
HETATM   18  C   UNK     0     156.850 170.557 162.659  0.00  0.00     0.121 A 
HETATM   19  C   UNK     0     159.471 166.292 161.684  0.00  0.00    -0.056 A 
HETATM   20  C   UNK     0     154.946 168.482 160.350  0.00  0.00    -0.056 A 
HETATM   21  C   UNK     0     162.194 163.724 159.680  0.00  0.00     0.310 C 
HETATM   22  C   UNK     0     153.789 172.432 159.308  0.00  0.00     0.310 C 
HETATM   23  C   UNK     0     157.241 161.382 160.924  0.00  0.00     0.047 A 
HETATM   24  C   UNK     0     155.345 171.778 164.668  0.00  0.00     0.047 A 
HETATM   25  C   UNK     0     156.101 163.245 159.911  0.00  0.00     0.136 A 
HETATM   26  C   UNK     0     157.375 170.700 163.951  0.00  0.00     0.136 A 
HETATM   27  C   UNK     0     156.069 161.962 160.448  0.00  0.00     0.104 A 
HETATM   28  C   UNK     0     156.613 171.282 164.959  0.00  0.00     0.104 A 
HETATM   29  C   UNK     0     158.538 166.595 162.682  0.00  0.00     0.010 A 
HETATM   30  C   UNK     0     155.677 168.443 159.156  0.00  0.00     0.010 A 
HETATM   31  C   UNK     0     159.826 167.290 160.768  0.00  0.00     0.010 A 
HETATM   32  C   UNK     0     154.939 167.351 161.174  0.00  0.00     0.010 A 
HETATM   33  C   UNK     0     156.463 166.208 159.674  0.00  0.00     0.076 A 
HETATM   34  C   UNK     0     158.250 168.828 161.783  0.00  0.00     0.076 A 
HETATM   35  C   UNK     0     156.433 167.317 158.824  0.00  0.00     0.038 A 
HETATM   36  C   UNK     0     157.924 167.850 162.728  0.00  0.00     0.038 A 
HETATM   37  C   UNK     0     155.700 166.224 160.845  0.00  0.00     0.038 A 
HETATM   38  C   UNK     0     159.217 168.546 160.815  0.00  0.00     0.038 A 
ENDROOT
BRANCH  25  39
HETATM   39  O   UNK     0     154.962 163.730 159.333  0.00  0.00    -0.351 OA
HETATM   40  C   UNK     0     154.755 163.423 157.958  0.00  0.00     0.210 C 
ENDBRANCH  25  39
BRANCH  27  41
HETATM   41  O   UNK     0     154.911 161.246 160.475  0.00  0.00    -0.353 OA
HETATM   42  C   UNK     0     154.499 160.727 161.738  0.00  0.00     0.210 C 
ENDBRANCH  27  41
BRANCH  26  43
HETATM   43  O   UNK     0     158.662 170.345 164.241  0.00  0.00    -0.351 OA
HETATM   44  C   UNK     0     159.661 171.347 164.067  0.00  0.00     0.210 C 
ENDBRANCH  26  43
BRANCH  28  45
HETATM   45  O   UNK     0     157.108 171.413 166.220  0.00  0.00    -0.353 OA
HETATM   46  C   UNK     0     156.459 172.348 167.079  0.00  0.00     0.210 C 
ENDBRANCH  28  45
TORSDOF 4
ENDMDL
