MODEL 1
REMARK VINA RESULT:      -7.1      0.000      0.000
REMARK  2 active torsions:
REMARK  status: ('A' for Active; 'I' for Inactive)
REMARK    1  A    between atoms: O_2  and  C_19 
REMARK    2  A    between atoms: C_12  and  C_19 
ROOT
HETATM    1  O   UNK     0     146.865 170.354 151.318  0.00  0.00    -0.357 OA
HETATM    2  N   UNK     0     145.574 172.795 155.430  0.00  0.00    -0.358 N 
HETATM    3  N   UNK     0     144.448 176.278 154.714  0.00  0.00    -0.245 NA
HETATM    4  C   UNK     0     146.240 171.576 153.368  0.00  0.00     0.042 C 
HETATM    5  C   UNK     0     146.711 172.918 152.777  0.00  0.00     0.040 C 
HETATM    6  C   UNK     0     146.314 171.642 154.893  0.00  0.00     0.136 C 
HETATM    7  C   UNK     0     145.694 173.994 153.192  0.00  0.00     0.069 C 
HETATM    8  C   UNK     0     147.004 170.386 152.753  0.00  0.00     0.130 C 
HETATM    9  C   UNK     0     145.339 173.971 154.662  0.00  0.00     0.042 A 
HETATM   10  C   UNK     0     146.876 172.769 151.290  0.00  0.00     0.044 C 
HETATM   11  C   UNK     0     144.776 175.054 155.244  0.00  0.00     0.091 A 
HETATM   12  C   UNK     0     148.491 170.302 153.103  0.00  0.00     0.040 C 
HETATM   13  C   UNK     0     146.913 171.572 150.689  0.00  0.00     0.148 C 
HETATM   14  C   UNK     0     145.213 172.788 156.792  0.00  0.00     0.092 A 
HETATM   15  C   UNK     0     144.410 175.008 156.653  0.00  0.00     0.009 A 
HETATM   16  C   UNK     0     144.644 173.822 157.439  0.00  0.00     0.032 A 
HETATM   17  C   UNK     0     143.870 176.176 156.997  0.00  0.00     0.005 A 
HETATM   18  C   UNK     0     143.931 176.921 155.719  0.00  0.00     0.068 A 
HETATM   19  C   UNK     0     143.325 176.757 158.181  0.00  0.00     0.014 A 
HETATM   20  C   UNK     0     143.398 178.302 155.732  0.00  0.00     0.032 A 
HETATM   21  C   UNK     0     142.859 178.015 158.118  0.00  0.00     0.001 A 
HETATM   22  C   UNK     0     142.901 178.784 156.884  0.00  0.00     0.002 A 
ENDROOT
BRANCH  10  23
HETATM   23  C   UNK     0     147.026 173.938 150.420  0.00  0.00     0.291 C 
HETATM   24  O   UNK     0     146.105 174.434 149.790  0.00  0.00    -0.260 OA
BRANCH  23  25
HETATM   25  O   UNK     0     148.321 174.341 150.452  0.00  0.00    -0.323 OA
HETATM   26  C   UNK     0     148.562 175.577 151.132  0.00  0.00     0.213 C 
ENDBRANCH  23  25
ENDBRANCH  10  23
TORSDOF 2
ENDMDL
MODEL 2
REMARK VINA RESULT:      -7.0     26.527     30.969
REMARK  2 active torsions:
REMARK  status: ('A' for Active; 'I' for Inactive)
REMARK    1  A    between atoms: O_2  and  C_19 
REMARK    2  A    between atoms: C_12  and  C_19 
ROOT
HETATM    1  O   UNK     0     160.091 153.579 162.031  0.00  0.00    -0.357 OA
HETATM    2  N   UNK     0     159.400 149.435 159.407  0.00  0.00    -0.358 N 
HETATM    3  N   UNK     0     161.116 146.493 160.928  0.00  0.00    -0.245 NA
HETATM    4  C   UNK     0     159.763 151.519 160.713  0.00  0.00     0.042 C 
HETATM    5  C   UNK     0     161.150 150.980 161.109  0.00  0.00     0.040 C 
HETATM    6  C   UNK     0     159.344 150.905 159.378  0.00  0.00     0.136 C 
HETATM    7  C   UNK     0     161.008 149.473 161.376  0.00  0.00     0.069 C 
HETATM    8  C   UNK     0     159.726 153.060 160.736  0.00  0.00     0.130 C 
HETATM    9  C   UNK     0     160.256 148.725 160.296  0.00  0.00     0.042 A 
HETATM   10  C   UNK     0     161.666 151.766 162.282  0.00  0.00     0.044 C 
HETATM   11  C   UNK     0     160.374 147.383 160.190  0.00  0.00     0.091 A 
HETATM   12  C   UNK     0     160.574 153.759 159.672  0.00  0.00     0.040 C 
HETATM   13  C   UNK     0     161.122 152.930 162.662  0.00  0.00     0.148 C 
HETATM   14  C   UNK     0     158.692 148.715 158.425  0.00  0.00     0.092 A 
HETATM   15  C   UNK     0     159.620 146.671 159.167  0.00  0.00     0.009 A 
HETATM   16  C   UNK     0     158.751 147.381 158.261  0.00  0.00     0.032 A 
HETATM   17  C   UNK     0     159.887 145.370 159.260  0.00  0.00     0.005 A 
HETATM   18  C   UNK     0     160.839 145.341 160.394  0.00  0.00     0.068 A 
HETATM   19  C   UNK     0     159.491 144.178 158.581  0.00  0.00     0.014 A 
HETATM   20  C   UNK     0     161.360 144.013 160.787  0.00  0.00     0.032 A 
HETATM   21  C   UNK     0     160.005 143.008 158.993  0.00  0.00     0.001 A 
HETATM   22  C   UNK     0     160.944 142.934 160.102  0.00  0.00     0.002 A 
ENDROOT
BRANCH  10  23
HETATM   23  C   UNK     0     162.816 151.302 163.063  0.00  0.00     0.291 C 
HETATM   24  O   UNK     0     162.731 150.884 164.207  0.00  0.00    -0.260 OA
BRANCH  23  25
HETATM   25  O   UNK     0     163.934 151.419 162.302  0.00  0.00    -0.323 OA
HETATM   26  C   UNK     0     164.673 150.209 162.110  0.00  0.00     0.213 C 
ENDBRANCH  23  25
ENDBRANCH  10  23
TORSDOF 2
ENDMDL
MODEL 3
REMARK VINA RESULT:      -6.9     25.885     29.116
REMARK  2 active torsions:
REMARK  status: ('A' for Active; 'I' for Inactive)
REMARK    1  A    between atoms: O_2  and  C_19 
REMARK    2  A    between atoms: C_12  and  C_19 
ROOT
HETATM    1  O   UNK     0     165.675 157.710 158.117  0.00  0.00    -0.357 OA
HETATM    2  N   UNK     0     168.282 161.178 160.506  0.00  0.00    -0.358 N 
HETATM    3  N   UNK     0     171.847 160.190 160.984  0.00  0.00    -0.245 NA
HETATM    4  C   UNK     0     166.968 159.429 159.324  0.00  0.00     0.042 C 
HETATM    5  C   UNK     0     167.867 158.366 159.984  0.00  0.00     0.040 C 
HETATM    6  C   UNK     0     166.932 160.677 160.204  0.00  0.00     0.136 C 
HETATM    7  C   UNK     0     169.306 158.908 159.989  0.00  0.00     0.069 C 
HETATM    8  C   UNK     0     165.577 158.860 158.980  0.00  0.00     0.130 C 
HETATM    9  C   UNK     0     169.427 160.329 160.495  0.00  0.00     0.042 A 
HETATM   10  C   UNK     0     167.704 157.062 159.253  0.00  0.00     0.044 C 
HETATM   11  C   UNK     0     170.620 160.804 160.913  0.00  0.00     0.091 A 
HETATM   12  C   UNK     0     164.695 158.500 160.177  0.00  0.00     0.040 C 
HETATM   13  C   UNK     0     166.697 156.839 158.399  0.00  0.00     0.148 C 
HETATM   14  C   UNK     0     168.423 162.504 160.959  0.00  0.00     0.092 A 
HETATM   15  C   UNK     0     170.729 162.184 161.368  0.00  0.00     0.009 A 
HETATM   16  C   UNK     0     169.577 163.050 161.383  0.00  0.00     0.032 A 
HETATM   17  C   UNK     0     171.992 162.425 161.718  0.00  0.00     0.005 A 
HETATM   18  C   UNK     0     172.631 161.117 161.447  0.00  0.00     0.068 A 
HETATM   19  C   UNK     0     172.734 163.534 162.226  0.00  0.00     0.014 A 
HETATM   20  C   UNK     0     174.081 161.018 161.730  0.00  0.00     0.032 A 
HETATM   21  C   UNK     0     174.046 163.371 162.459  0.00  0.00     0.001 A 
HETATM   22  C   UNK     0     174.714 162.103 162.207  0.00  0.00     0.002 A 
ENDROOT
BRANCH  10  23
HETATM   23  C   UNK     0     168.639 155.953 159.459  0.00  0.00     0.291 C 
HETATM   24  O   UNK     0     169.400 155.541 158.597  0.00  0.00    -0.260 OA
BRANCH  23  25
HETATM   25  O   UNK     0     168.502 155.499 160.730  0.00  0.00    -0.323 OA
HETATM   26  C   UNK     0     169.726 155.291 161.443  0.00  0.00     0.213 C 
ENDBRANCH  23  25
ENDBRANCH  10  23
TORSDOF 2
ENDMDL
MODEL 4
REMARK VINA RESULT:      -6.8     24.973     28.865
REMARK  2 active torsions:
REMARK  status: ('A' for Active; 'I' for Inactive)
REMARK    1  A    between atoms: O_2  and  C_19 
REMARK    2  A    between atoms: C_12  and  C_19 
ROOT
HETATM    1  O   UNK     0     161.567 150.730 160.747  0.00  0.00    -0.357 OA
HETATM    2  N   UNK     0     165.987 152.449 159.321  0.00  0.00    -0.358 N 
HETATM    3  N   UNK     0     165.967 156.141 158.794  0.00  0.00    -0.245 NA
HETATM    4  C   UNK     0     163.763 151.582 160.019  0.00  0.00     0.042 C 
HETATM    5  C   UNK     0     163.112 152.696 159.177  0.00  0.00     0.040 C 
HETATM    6  C   UNK     0     165.139 151.252 159.442  0.00  0.00     0.136 C 
HETATM    7  C   UNK     0     163.952 153.971 159.358  0.00  0.00     0.069 C 
HETATM    8  C   UNK     0     162.832 150.362 160.162  0.00  0.00     0.130 C 
HETATM    9  C   UNK     0     165.441 153.757 159.192  0.00  0.00     0.042 A 
HETATM   10  C   UNK     0     161.673 152.844 159.587  0.00  0.00     0.044 C 
HETATM   11  C   UNK     0     166.256 154.806 158.946  0.00  0.00     0.091 A 
HETATM   12  C   UNK     0     162.567 149.576 158.876  0.00  0.00     0.040 C 
HETATM   13  C   UNK     0     161.038 151.922 160.323  0.00  0.00     0.148 C 
HETATM   14  C   UNK     0     167.379 152.276 159.186  0.00  0.00     0.092 A 
HETATM   15  C   UNK     0     167.691 154.591 158.819  0.00  0.00     0.009 A 
HETATM   16  C   UNK     0     168.254 153.270 158.948  0.00  0.00     0.032 A 
HETATM   17  C   UNK     0     168.285 155.761 158.589  0.00  0.00     0.005 A 
HETATM   18  C   UNK     0     167.129 156.687 158.587  0.00  0.00     0.068 A 
HETATM   19  C   UNK     0     169.618 156.224 158.378  0.00  0.00     0.014 A 
HETATM   20  C   UNK     0     167.427 158.118 158.355  0.00  0.00     0.032 A 
HETATM   21  C   UNK     0     169.814 157.536 158.174  0.00  0.00     0.001 A 
HETATM   22  C   UNK     0     168.707 158.480 158.163  0.00  0.00     0.002 A 
ENDROOT
BRANCH  10  23
HETATM   23  C   UNK     0     160.882 154.007 159.179  0.00  0.00     0.291 C 
HETATM   24  O   UNK     0     160.724 154.343 158.015  0.00  0.00    -0.260 OA
BRANCH  23  25
HETATM   25  O   UNK     0     160.383 154.606 160.290  0.00  0.00    -0.323 OA
HETATM   26  C   UNK     0     160.576 156.022 160.363  0.00  0.00     0.213 C 
ENDBRANCH  23  25
ENDBRANCH  10  23
TORSDOF 2
ENDMDL
MODEL 5
REMARK VINA RESULT:      -6.8     11.071     13.192
REMARK  2 active torsions:
REMARK  status: ('A' for Active; 'I' for Inactive)
REMARK    1  A    between atoms: O_2  and  C_19 
REMARK    2  A    between atoms: C_12  and  C_19 
ROOT
HETATM    1  O   UNK     0     143.588 163.962 160.694  0.00  0.00    -0.357 OA
HETATM    2  N   UNK     0     142.595 168.282 162.903  0.00  0.00    -0.358 N 
HETATM    3  N   UNK     0     144.014 168.470 166.347  0.00  0.00    -0.245 NA
HETATM    4  C   UNK     0     143.077 166.106 161.800  0.00  0.00     0.042 C 
HETATM    5  C   UNK     0     143.019 165.438 163.187  0.00  0.00     0.040 C 
HETATM    6  C   UNK     0     142.218 167.369 161.812  0.00  0.00     0.136 C 
HETATM    7  C   UNK     0     143.694 166.386 164.192  0.00  0.00     0.069 C 
HETATM    8  C   UNK     0     142.720 165.112 160.678  0.00  0.00     0.130 C 
HETATM    9  C   UNK     0     143.226 167.822 164.094  0.00  0.00     0.042 A 
HETATM   10  C   UNK     0     143.653 164.077 163.105  0.00  0.00     0.044 C 
HETATM   11  C   UNK     0     143.427 168.675 165.122  0.00  0.00     0.091 A 
HETATM   12  C   UNK     0     141.268 164.629 160.658  0.00  0.00     0.040 C 
HETATM   13  C   UNK     0     143.906 163.474 161.936  0.00  0.00     0.148 C 
HETATM   14  C   UNK     0     142.189 169.629 162.824  0.00  0.00     0.092 A 
HETATM   15  C   UNK     0     143.000 170.063 165.002  0.00  0.00     0.009 A 
HETATM   16  C   UNK     0     142.360 170.538 163.801  0.00  0.00     0.032 A 
HETATM   17  C   UNK     0     143.308 170.708 166.126  0.00  0.00     0.005 A 
HETATM   18  C   UNK     0     143.943 169.633 166.923  0.00  0.00     0.068 A 
HETATM   19  C   UNK     0     143.167 172.035 166.632  0.00  0.00     0.014 A 
HETATM   20  C   UNK     0     144.424 170.006 168.272  0.00  0.00     0.032 A 
HETATM   21  C   UNK     0     143.627 172.301 167.866  0.00  0.00     0.001 A 
HETATM   22  C   UNK     0     144.256 171.275 168.682  0.00  0.00     0.002 A 
ENDROOT
BRANCH  10  23
HETATM   23  C   UNK     0     144.009 163.329 164.313  0.00  0.00     0.291 C 
HETATM   24  O   UNK     0     145.121 163.350 164.817  0.00  0.00    -0.260 OA
BRANCH  23  25
HETATM   25  O   UNK     0     142.917 162.646 164.739  0.00  0.00    -0.323 OA
HETATM   26  C   UNK     0     142.476 162.961 166.064  0.00  0.00     0.213 C 
ENDBRANCH  23  25
ENDBRANCH  10  23
TORSDOF 2
ENDMDL
MODEL 6
REMARK VINA RESULT:      -6.7     12.769     15.597
REMARK  2 active torsions:
REMARK  status: ('A' for Active; 'I' for Inactive)
REMARK    1  A    between atoms: O_2  and  C_19 
REMARK    2  A    between atoms: C_12  and  C_19 
ROOT
HETATM    1  O   UNK     0     160.753 171.179 161.818  0.00  0.00    -0.357 OA
HETATM    2  N   UNK     0     156.371 169.652 160.086  0.00  0.00    -0.358 N 
HETATM    3  N   UNK     0     156.523 166.190 158.705  0.00  0.00    -0.245 NA
HETATM    4  C   UNK     0     158.575 170.426 160.938  0.00  0.00     0.042 C 
HETATM    5  C   UNK     0     159.250 169.570 159.849  0.00  0.00     0.040 C 
HETATM    6  C   UNK     0     157.174 170.822 160.474  0.00  0.00     0.136 C 
HETATM    7  C   UNK     0     158.465 168.253 159.737  0.00  0.00     0.069 C 
HETATM    8  C   UNK     0     159.461 171.618 161.352  0.00  0.00     0.130 C 
HETATM    9  C   UNK     0     156.965 168.435 159.645  0.00  0.00     0.042 A 
HETATM   10  C   UNK     0     160.702 169.393 160.194  0.00  0.00     0.044 C 
HETATM   11  C   UNK     0     156.187 167.439 159.170  0.00  0.00     0.091 A 
HETATM   12  C   UNK     0     159.665 172.694 160.284  0.00  0.00     0.040 C 
HETATM   13  C   UNK     0     161.318 170.143 161.117  0.00  0.00     0.148 C 
HETATM   14  C   UNK     0     154.971 169.790 160.014  0.00  0.00     0.092 A 
HETATM   15  C   UNK     0     154.741 167.615 159.117  0.00  0.00     0.009 A 
HETATM   16  C   UNK     0     154.130 168.843 159.561  0.00  0.00     0.032 A 
HETATM   17  C   UNK     0     154.189 166.507 158.626  0.00  0.00     0.005 A 
HETATM   18  C   UNK     0     155.380 165.659 158.391  0.00  0.00     0.068 A 
HETATM   19  C   UNK     0     152.869 166.049 158.330  0.00  0.00     0.014 A 
HETATM   20  C   UNK     0     155.132 164.310 157.832  0.00  0.00     0.032 A 
HETATM   21  C   UNK     0     152.721 164.814 157.825  0.00  0.00     0.001 A 
HETATM   22  C   UNK     0     153.863 163.948 157.578  0.00  0.00     0.002 A 
ENDROOT
BRANCH  10  23
HETATM   23  C   UNK     0     161.529 168.394 159.513  0.00  0.00     0.291 C 
HETATM   24  O   UNK     0     161.610 168.298 158.298  0.00  0.00    -0.260 OA
BRANCH  23  25
HETATM   25  O   UNK     0     162.156 167.637 160.449  0.00  0.00    -0.323 OA
HETATM   26  C   UNK     0     161.796 166.251 160.458  0.00  0.00     0.213 C 
ENDBRANCH  23  25
ENDBRANCH  10  23
TORSDOF 2
ENDMDL
MODEL 7
REMARK VINA RESULT:      -6.7     16.332     18.282
REMARK  2 active torsions:
REMARK  status: ('A' for Active; 'I' for Inactive)
REMARK    1  A    between atoms: O_2  and  C_19 
REMARK    2  A    between atoms: C_12  and  C_19 
ROOT
HETATM    1  O   UNK     0     162.357 168.674 162.477  0.00  0.00    -0.357 OA
HETATM    2  N   UNK     0     163.052 172.622 159.568  0.00  0.00    -0.358 N 
HETATM    3  N   UNK     0     161.480 175.703 160.963  0.00  0.00    -0.245 NA
HETATM    4  C   UNK     0     162.687 170.635 161.018  0.00  0.00     0.042 C 
HETATM    5  C   UNK     0     161.332 171.239 161.433  0.00  0.00     0.040 C 
HETATM    6  C   UNK     0     163.067 171.151 159.632  0.00  0.00     0.136 C 
HETATM    7  C   UNK     0     161.526 172.755 161.596  0.00  0.00     0.069 C 
HETATM    8  C   UNK     0     162.683 169.098 161.139  0.00  0.00     0.130 C 
HETATM    9  C   UNK     0     162.253 173.411 160.443  0.00  0.00     0.042 A 
HETATM   10  C   UNK     0     160.843 170.544 162.673  0.00  0.00     0.044 C 
HETATM   11  C   UNK     0     162.168 174.747 160.255  0.00  0.00     0.091 A 
HETATM   12  C   UNK     0     161.773 168.359 160.155  0.00  0.00     0.040 C 
HETATM   13  C   UNK     0     161.371 169.391 163.105  0.00  0.00     0.148 C 
HETATM   14  C   UNK     0     163.740 173.257 158.515  0.00  0.00     0.092 A 
HETATM   15  C   UNK     0     162.899 175.370 159.160  0.00  0.00     0.009 A 
HETATM   16  C   UNK     0     163.710 174.579 158.268  0.00  0.00     0.032 A 
HETATM   17  C   UNK     0     162.670 176.682 159.180  0.00  0.00     0.005 A 
HETATM   18  C   UNK     0     161.766 176.810 160.346  0.00  0.00     0.068 A 
HETATM   19  C   UNK     0     163.071 177.816 158.411  0.00  0.00     0.014 A 
HETATM   20  C   UNK     0     161.298 178.175 160.673  0.00  0.00     0.032 A 
HETATM   21  C   UNK     0     162.606 179.025 158.767  0.00  0.00     0.001 A 
HETATM   22  C   UNK     0     161.716 179.196 159.904  0.00  0.00     0.002 A 
ENDROOT
BRANCH  10  23
HETATM   23  C   UNK     0     159.739 171.091 163.466  0.00  0.00     0.291 C 
HETATM   24  O   UNK     0     159.872 171.526 164.599  0.00  0.00    -0.260 OA
BRANCH  23  25
HETATM   25  O   UNK     0     158.600 171.023 162.731  0.00  0.00    -0.323 OA
HETATM   26  C   UNK     0     157.640 170.059 163.177  0.00  0.00     0.213 C 
ENDBRANCH  23  25
ENDBRANCH  10  23
TORSDOF 2
ENDMDL
MODEL 8
REMARK VINA RESULT:      -6.6      4.390      7.047
REMARK  2 active torsions:
REMARK  status: ('A' for Active; 'I' for Inactive)
REMARK    1  A    between atoms: O_2  and  C_19 
REMARK    2  A    between atoms: C_12  and  C_19 
ROOT
HETATM    1  O   UNK     0     148.770 171.541 144.891  0.00  0.00    -0.357 OA
HETATM    2  N   UNK     0     148.022 173.287 149.465  0.00  0.00    -0.358 N 
HETATM    3  N   UNK     0     147.088 170.595 151.872  0.00  0.00    -0.245 NA
HETATM    4  C   UNK     0     148.379 172.414 147.164  0.00  0.00     0.042 C 
HETATM    5  C   UNK     0     147.309 171.343 147.450  0.00  0.00     0.040 C 
HETATM    6  C   UNK     0     148.114 173.638 148.039  0.00  0.00     0.136 C 
HETATM    7  C   UNK     0     147.502 170.864 148.898  0.00  0.00     0.069 C 
HETATM    8  C   UNK     0     148.480 172.726 145.658  0.00  0.00     0.130 C 
HETATM    9  C   UNK     0     147.645 171.986 149.904  0.00  0.00     0.042 A 
HETATM   10  C   UNK     0     147.420 170.251 146.421  0.00  0.00     0.044 C 
HETATM   11  C   UNK     0     147.441 171.751 151.218  0.00  0.00     0.091 A 
HETATM   12  C   UNK     0     147.264 173.422 145.043  0.00  0.00     0.040 C 
HETATM   13  C   UNK     0     148.121 170.400 145.290  0.00  0.00     0.148 C 
HETATM   14  C   UNK     0     148.173 174.310 150.421  0.00  0.00     0.092 A 
HETATM   15  C   UNK     0     147.613 172.833 152.179  0.00  0.00     0.009 A 
HETATM   16  C   UNK     0     147.995 174.154 151.745  0.00  0.00     0.032 A 
HETATM   17  C   UNK     0     147.370 172.366 153.403  0.00  0.00     0.005 A 
HETATM   18  C   UNK     0     147.045 170.948 153.123  0.00  0.00     0.068 A 
HETATM   19  C   UNK     0     147.365 172.889 154.731  0.00  0.00     0.014 A 
HETATM   20  C   UNK     0     146.714 170.101 154.290  0.00  0.00     0.032 A 
HETATM   21  C   UNK     0     147.054 172.062 155.742  0.00  0.00     0.001 A 
HETATM   22  C   UNK     0     146.728 170.663 155.511  0.00  0.00     0.002 A 
ENDROOT
BRANCH  10  23
HETATM   23  C   UNK     0     146.741 168.966 146.601  0.00  0.00     0.291 C 
HETATM   24  O   UNK     0     147.307 167.948 146.970  0.00  0.00    -0.260 OA
BRANCH  23  25
HETATM   25  O   UNK     0     145.428 169.120 146.293  0.00  0.00    -0.323 OA
HETATM   26  C   UNK     0     144.871 168.102 145.456  0.00  0.00     0.213 C 
ENDBRANCH  23  25
ENDBRANCH  10  23
TORSDOF 2
ENDMDL
MODEL 9
REMARK VINA RESULT:      -6.6     21.539     25.468
REMARK  2 active torsions:
REMARK  status: ('A' for Active; 'I' for Inactive)
REMARK    1  A    between atoms: O_2  and  C_19 
REMARK    2  A    between atoms: C_12  and  C_19 
ROOT
HETATM    1  O   UNK     0     160.894 159.223 162.481  0.00  0.00    -0.357 OA
HETATM    2  N   UNK     0     165.256 158.828 160.168  0.00  0.00    -0.358 N 
HETATM    3  N   UNK     0     167.345 161.894 160.554  0.00  0.00    -0.245 NA
HETATM    4  C   UNK     0     163.058 159.033 161.313  0.00  0.00     0.042 C 
HETATM    5  C   UNK     0     163.086 160.543 161.007  0.00  0.00     0.040 C 
HETATM    6  C   UNK     0     163.890 158.290 160.269  0.00  0.00     0.136 C 
HETATM    7  C   UNK     0     164.530 161.033 161.205  0.00  0.00     0.069 C 
HETATM    8  C   UNK     0     161.614 158.511 161.456  0.00  0.00     0.130 C 
HETATM    9  C   UNK     0     165.572 160.169 160.529  0.00  0.00     0.042 A 
HETATM   10  C   UNK     0     162.076 161.239 161.875  0.00  0.00     0.044 C 
HETATM   11  C   UNK     0     166.809 160.657 160.289  0.00  0.00     0.091 A 
HETATM   12  C   UNK     0     160.778 158.518 160.175  0.00  0.00     0.040 C 
HETATM   13  C   UNK     0     161.119 160.575 162.538  0.00  0.00     0.148 C 
HETATM   14  C   UNK     0     166.249 158.034 159.562  0.00  0.00     0.092 A 
HETATM   15  C   UNK     0     167.813 159.804 159.667  0.00  0.00     0.009 A 
HETATM   16  C   UNK     0     167.502 158.445 159.297  0.00  0.00     0.032 A 
HETATM   17  C   UNK     0     168.946 160.492 159.540  0.00  0.00     0.005 A 
HETATM   18  C   UNK     0     168.567 161.800 160.122  0.00  0.00     0.068 A 
HETATM   19  C   UNK     0     170.257 160.248 159.031  0.00  0.00     0.014 A 
HETATM   20  C   UNK     0     169.618 162.843 160.149  0.00  0.00     0.032 A 
HETATM   21  C   UNK     0     171.160 161.240 159.088  0.00  0.00     0.001 A 
HETATM   22  C   UNK     0     170.830 162.541 159.650  0.00  0.00     0.002 A 
ENDROOT
BRANCH  10  23
HETATM   23  C   UNK     0     162.076 162.697 162.024  0.00  0.00     0.291 C 
HETATM   24  O   UNK     0     162.470 163.274 163.025  0.00  0.00    -0.260 OA
BRANCH  23  25
HETATM   25  O   UNK     0     161.580 163.250 160.888  0.00  0.00    -0.323 OA
HETATM   26  C   UNK     0     162.134 164.521 160.533  0.00  0.00     0.213 C 
ENDBRANCH  23  25
ENDBRANCH  10  23
TORSDOF 2
ENDMDL
