MODEL 1
REMARK VINA RESULT:      -8.3      0.000      0.000
REMARK  2 active torsions:
REMARK  status: ('A' for Active; 'I' for Inactive)
REMARK    1  A    between atoms: O_2  and  C_19 
REMARK    2  A    between atoms: C_12  and  C_19 
ROOT
HETATM    1  O   UNK     0       6.928 -11.794 -52.614  0.00  0.00    -0.357 OA
HETATM    2  N   UNK     0       5.540 -16.066 -50.526  0.00  0.00    -0.358 N 
HETATM    3  N   UNK     0       4.475 -15.627 -46.979  0.00  0.00    -0.245 NA
HETATM    4  C   UNK     0       6.255 -13.925 -51.569  0.00  0.00     0.042 C 
HETATM    5  C   UNK     0       6.758 -13.468 -50.187  0.00  0.00     0.040 C 
HETATM    6  C   UNK     0       6.283 -15.451 -51.638  0.00  0.00     0.136 C 
HETATM    7  C   UNK     0       5.741 -13.946 -49.137  0.00  0.00     0.069 C 
HETATM    8  C   UNK     0       7.024 -13.229 -52.710  0.00  0.00     0.130 C 
HETATM    9  C   UNK     0       5.341 -15.398 -49.284  0.00  0.00     0.042 A 
HETATM   10  C   UNK     0       6.967 -11.979 -50.207  0.00  0.00     0.044 C 
HETATM   11  C   UNK     0       4.774 -16.056 -48.249  0.00  0.00     0.091 A 
HETATM   12  C   UNK     0       8.499 -13.613 -52.845  0.00  0.00     0.040 C 
HETATM   13  C   UNK     0       7.009 -11.276 -51.346  0.00  0.00     0.148 C 
HETATM   14  C   UNK     0       5.138 -17.410 -50.648  0.00  0.00     0.092 A 
HETATM   15  C   UNK     0       4.364 -17.444 -48.414  0.00  0.00     0.009 A 
HETATM   16  C   UNK     0       4.561 -18.129 -49.668  0.00  0.00     0.032 A 
HETATM   17  C   UNK     0       3.827 -17.874 -47.274  0.00  0.00     0.005 A 
HETATM   18  C   UNK     0       3.935 -16.669 -46.420  0.00  0.00     0.068 A 
HETATM   19  C   UNK     0       3.252 -19.089 -46.791  0.00  0.00     0.014 A 
HETATM   20  C   UNK     0       3.417 -16.788 -45.038  0.00  0.00     0.032 A 
HETATM   21  C   UNK     0       2.803 -19.123 -45.526  0.00  0.00     0.001 A 
HETATM   22  C   UNK     0       2.890 -17.963 -44.653  0.00  0.00     0.002 A 
ENDROOT
BRANCH  10  23
HETATM   23  C   UNK     0       7.156 -11.220 -48.968  0.00  0.00     0.291 C 
HETATM   24  O   UNK     0       7.611 -11.702 -47.943  0.00  0.00    -0.260 OA
BRANCH  23  25
HETATM   25  O   UNK     0       6.748  -9.942 -49.175  0.00  0.00    -0.323 OA
HETATM   26  C   UNK     0       7.138  -9.004 -48.166  0.00  0.00     0.213 C 
ENDBRANCH  23  25
ENDBRANCH  10  23
TORSDOF 2
ENDMDL
MODEL 2
REMARK VINA RESULT:      -7.9     14.451     18.144
REMARK  2 active torsions:
REMARK  status: ('A' for Active; 'I' for Inactive)
REMARK    1  A    between atoms: O_2  and  C_19 
REMARK    2  A    between atoms: C_12  and  C_19 
ROOT
HETATM    1  O   UNK     0       7.937  -0.243 -48.929  0.00  0.00    -0.357 OA
HETATM    2  N   UNK     0       5.507   2.474 -52.282  0.00  0.00    -0.358 N 
HETATM    3  N   UNK     0       6.361   1.501 -55.780  0.00  0.00    -0.245 NA
HETATM    4  C   UNK     0       6.741   1.123 -50.598  0.00  0.00     0.042 C 
HETATM    5  C   UNK     0       7.914   1.032 -51.593  0.00  0.00     0.040 C 
HETATM    6  C   UNK     0       5.940   2.393 -50.877  0.00  0.00     0.136 C 
HETATM    7  C   UNK     0       7.322   0.844 -52.999  0.00  0.00     0.069 C 
HETATM    8  C   UNK     0       7.224   0.991 -49.140  0.00  0.00     0.130 C 
HETATM    9  C   UNK     0       6.205   1.810 -53.331  0.00  0.00     0.042 A 
HETATM   10  C   UNK     0       8.839  -0.073 -51.162  0.00  0.00     0.044 C 
HETATM   11  C   UNK     0       5.851   2.026 -54.617  0.00  0.00     0.091 A 
HETATM   12  C   UNK     0       8.079   2.147 -48.618  0.00  0.00     0.040 C 
HETATM   13  C   UNK     0       8.778  -0.625 -49.943  0.00  0.00     0.148 C 
HETATM   14  C   UNK     0       4.455   3.351 -52.613  0.00  0.00     0.092 A 
HETATM   15  C   UNK     0       4.754   2.934 -54.920  0.00  0.00     0.009 A 
HETATM   16  C   UNK     0       4.041   3.611 -53.866  0.00  0.00     0.032 A 
HETATM   17  C   UNK     0       4.584   2.980 -56.241  0.00  0.00     0.005 A 
HETATM   18  C   UNK     0       5.637   2.050 -56.710  0.00  0.00     0.068 A 
HETATM   19  C   UNK     0       3.713   3.650 -57.152  0.00  0.00     0.014 A 
HETATM   20  C   UNK     0       5.740   1.851 -58.172  0.00  0.00     0.032 A 
HETATM   21  C   UNK     0       3.865   3.421 -58.466  0.00  0.00     0.001 A 
HETATM   22  C   UNK     0       4.887   2.516 -58.970  0.00  0.00     0.002 A 
ENDROOT
BRANCH  10  23
HETATM   23  C   UNK     0       9.875  -0.590 -52.059  0.00  0.00     0.291 C 
HETATM   24  O   UNK     0      10.780   0.092 -52.512  0.00  0.00    -0.260 OA
BRANCH  23  25
HETATM   25  O   UNK     0       9.643  -1.910 -52.276  0.00  0.00    -0.323 OA
HETATM   26  C   UNK     0      10.805  -2.746 -52.268  0.00  0.00     0.213 C 
ENDBRANCH  23  25
ENDBRANCH  10  23
TORSDOF 2
ENDMDL
MODEL 3
REMARK VINA RESULT:      -7.9      5.253      9.770
REMARK  2 active torsions:
REMARK  status: ('A' for Active; 'I' for Inactive)
REMARK    1  A    between atoms: O_2  and  C_19 
REMARK    2  A    between atoms: C_12  and  C_19 
ROOT
HETATM    1  O   UNK     0       7.784 -14.695 -50.201  0.00  0.00    -0.357 OA
HETATM    2  N   UNK     0      11.825 -11.830 -50.164  0.00  0.00    -0.358 N 
HETATM    3  N   UNK     0      11.179  -8.455 -51.615  0.00  0.00    -0.245 NA
HETATM    4  C   UNK     0       9.801 -13.276 -50.200  0.00  0.00     0.042 C 
HETATM    5  C   UNK     0       9.365 -12.561 -51.493  0.00  0.00     0.040 C 
HETATM    6  C   UNK     0      11.323 -13.211 -50.076  0.00  0.00     0.136 C 
HETATM    7  C   UNK     0       9.702 -11.069 -51.340  0.00  0.00     0.069 C 
HETATM    8  C   UNK     0       9.223 -14.702 -50.119  0.00  0.00     0.130 C 
HETATM    9  C   UNK     0      11.106 -10.803 -50.841  0.00  0.00     0.042 A 
HETATM   10  C   UNK     0       7.908 -12.839 -51.740  0.00  0.00     0.044 C 
HETATM   11  C   UNK     0      11.671  -9.588 -51.014  0.00  0.00     0.091 A 
HETATM   12  C   UNK     0       9.768 -15.697 -51.146  0.00  0.00     0.040 C 
HETATM   13  C   UNK     0       7.244 -13.810 -51.100  0.00  0.00     0.148 C 
HETATM   14  C   UNK     0      13.121 -11.553 -49.688  0.00  0.00     0.092 A 
HETATM   15  C   UNK     0      13.011  -9.336 -50.501  0.00  0.00     0.009 A 
HETATM   16  C   UNK     0      13.747 -10.369 -49.815  0.00  0.00     0.032 A 
HETATM   17  C   UNK     0      13.351  -8.078 -50.779  0.00  0.00     0.005 A 
HETATM   18  C   UNK     0      12.142  -7.591 -51.482  0.00  0.00     0.068 A 
HETATM   19  C   UNK     0      14.482  -7.236 -50.560  0.00  0.00     0.014 A 
HETATM   20  C   UNK     0      12.167  -6.187 -51.948  0.00  0.00     0.032 A 
HETATM   21  C   UNK     0      14.435  -5.972 -51.010  0.00  0.00     0.001 A 
HETATM   22  C   UNK     0      13.268  -5.454 -51.707  0.00  0.00     0.002 A 
ENDROOT
BRANCH  10  23
HETATM   23  C   UNK     0       7.141 -12.066 -52.720  0.00  0.00     0.291 C 
HETATM   24  O   UNK     0       7.359 -12.092 -53.921  0.00  0.00    -0.260 OA
BRANCH  23  25
HETATM   25  O   UNK     0       6.190 -11.354 -52.064  0.00  0.00    -0.323 OA
HETATM   26  C   UNK     0       5.686 -10.213 -52.766  0.00  0.00     0.213 C 
ENDBRANCH  23  25
ENDBRANCH  10  23
TORSDOF 2
ENDMDL
MODEL 4
REMARK VINA RESULT:      -7.4      4.167      8.596
REMARK  2 active torsions:
REMARK  status: ('A' for Active; 'I' for Inactive)
REMARK    1  A    between atoms: O_2  and  C_19 
REMARK    2  A    between atoms: C_12  and  C_19 
ROOT
HETATM    1  O   UNK     0       1.722 -21.889 -43.653  0.00  0.00    -0.357 OA
HETATM    2  N   UNK     0       2.497 -19.740 -48.048  0.00  0.00    -0.358 N 
HETATM    3  N   UNK     0       5.115 -17.088 -47.885  0.00  0.00    -0.245 NA
HETATM    4  C   UNK     0       2.094 -20.806 -45.838  0.00  0.00     0.042 C 
HETATM    5  C   UNK     0       2.433 -19.458 -45.173  0.00  0.00     0.040 C 
HETATM    6  C   UNK     0       1.567 -20.554 -47.250  0.00  0.00     0.136 C 
HETATM    7  C   UNK     0       3.607 -18.837 -45.947  0.00  0.00     0.069 C 
HETATM    8  C   UNK     0       1.153 -21.652 -44.956  0.00  0.00     0.130 C 
HETATM    9  C   UNK     0       3.427 -18.843 -47.449  0.00  0.00     0.042 A 
HETATM   10  C   UNK     0       2.710 -19.687 -43.713  0.00  0.00     0.044 C 
HETATM   11  C   UNK     0       4.162 -18.018 -48.226  0.00  0.00     0.091 A 
HETATM   12  C   UNK     0      -0.263 -21.101 -44.781  0.00  0.00     0.040 C 
HETATM   13  C   UNK     0       2.382 -20.826 -43.090  0.00  0.00     0.148 C 
HETATM   14  C   UNK     0       2.363 -19.745 -49.450  0.00  0.00     0.092 A 
HETATM   15  C   UNK     0       4.002 -18.056 -49.674  0.00  0.00     0.009 A 
HETATM   16  C   UNK     0       3.063 -18.961 -50.289  0.00  0.00     0.032 A 
HETATM   17  C   UNK     0       4.830 -17.169 -50.224  0.00  0.00     0.005 A 
HETATM   18  C   UNK     0       5.495 -16.601 -49.029  0.00  0.00     0.068 A 
HETATM   19  C   UNK     0       5.152 -16.730 -51.543  0.00  0.00     0.014 A 
HETATM   20  C   UNK     0       6.511 -15.553 -49.272  0.00  0.00     0.032 A 
HETATM   21  C   UNK     0       6.085 -15.775 -51.688  0.00  0.00     0.001 A 
HETATM   22  C   UNK     0       6.762 -15.189 -50.542  0.00  0.00     0.002 A 
ENDROOT
BRANCH  10  23
HETATM   23  C   UNK     0       3.341 -18.654 -42.888  0.00  0.00     0.291 C 
HETATM   24  O   UNK     0       3.793 -17.612 -43.337  0.00  0.00    -0.260 OA
BRANCH  23  25
HETATM   25  O   UNK     0       3.325 -19.061 -41.594  0.00  0.00    -0.323 OA
HETATM   26  C   UNK     0       4.610 -19.189 -40.975  0.00  0.00     0.213 C 
ENDBRANCH  23  25
ENDBRANCH  10  23
TORSDOF 2
ENDMDL
MODEL 5
REMARK VINA RESULT:      -7.3     15.523     17.611
REMARK  2 active torsions:
REMARK  status: ('A' for Active; 'I' for Inactive)
REMARK    1  A    between atoms: O_2  and  C_19 
REMARK    2  A    between atoms: C_12  and  C_19 
ROOT
HETATM    1  O   UNK     0       3.705   3.079 -56.591  0.00  0.00    -0.357 OA
HETATM    2  N   UNK     0       7.038   0.425 -54.065  0.00  0.00    -0.358 N 
HETATM    3  N   UNK     0       7.769   1.892 -50.714  0.00  0.00    -0.245 NA
HETATM    4  C   UNK     0       5.379   1.768 -55.342  0.00  0.00     0.042 C 
HETATM    5  C   UNK     0       5.930   3.029 -54.650  0.00  0.00     0.040 C 
HETATM    6  C   UNK     0       6.473   0.702 -55.395  0.00  0.00     0.136 C 
HETATM    7  C   UNK     0       6.226   2.668 -53.185  0.00  0.00     0.069 C 
HETATM    8  C   UNK     0       4.755   2.099 -56.712  0.00  0.00     0.130 C 
HETATM    9  C   UNK     0       7.010   1.385 -53.013  0.00  0.00     0.042 A 
HETATM   10  C   UNK     0       4.945   4.153 -54.820  0.00  0.00     0.044 C 
HETATM   11  C   UNK     0       7.662   1.136 -51.856  0.00  0.00     0.091 A 
HETATM   12  C   UNK     0       5.736   2.563 -57.791  0.00  0.00     0.040 C 
HETATM   13  C   UNK     0       3.942   4.099 -55.705  0.00  0.00     0.148 C 
HETATM   14  C   UNK     0       7.754  -0.773 -53.874  0.00  0.00     0.092 A 
HETATM   15  C   UNK     0       8.386  -0.118 -51.692  0.00  0.00     0.009 A 
HETATM   16  C   UNK     0       8.421  -1.096 -52.751  0.00  0.00     0.032 A 
HETATM   17  C   UNK     0       8.936  -0.143 -50.479  0.00  0.00     0.005 A 
HETATM   18  C   UNK     0       8.500   1.160 -49.927  0.00  0.00     0.068 A 
HETATM   19  C   UNK     0       9.740  -1.048 -49.724  0.00  0.00     0.014 A 
HETATM   20  C   UNK     0       8.942   1.477 -48.550  0.00  0.00     0.032 A 
HETATM   21  C   UNK     0      10.104  -0.694 -48.480  0.00  0.00     0.001 A 
HETATM   22  C   UNK     0       9.699   0.577 -47.899  0.00  0.00     0.002 A 
ENDROOT
BRANCH  10  23
HETATM   23  C   UNK     0       5.050   5.382 -54.030  0.00  0.00     0.291 C 
HETATM   24  O   UNK     0       5.880   6.252 -54.241  0.00  0.00    -0.260 OA
BRANCH  23  25
HETATM   25  O   UNK     0       4.092   5.364 -53.069  0.00  0.00    -0.323 OA
HETATM   26  C   UNK     0       4.500   5.855 -51.788  0.00  0.00     0.213 C 
ENDBRANCH  23  25
ENDBRANCH  10  23
TORSDOF 2
ENDMDL
MODEL 6
REMARK VINA RESULT:      -7.2     16.820     19.000
REMARK  2 active torsions:
REMARK  status: ('A' for Active; 'I' for Inactive)
REMARK    1  A    between atoms: O_2  and  C_19 
REMARK    2  A    between atoms: C_12  and  C_19 
ROOT
HETATM    1  O   UNK     0      11.175 -29.959 -54.727  0.00  0.00    -0.357 OA
HETATM    2  N   UNK     0      14.773 -26.736 -55.823  0.00  0.00    -0.358 N 
HETATM    3  N   UNK     0      14.849 -25.880 -59.453  0.00  0.00    -0.245 NA
HETATM    4  C   UNK     0      12.979 -28.369 -55.276  0.00  0.00     0.042 C 
HETATM    5  C   UNK     0      13.169 -28.983 -56.676  0.00  0.00     0.040 C 
HETATM    6  C   UNK     0      14.284 -27.708 -54.833  0.00  0.00     0.136 C 
HETATM    7  C   UNK     0      13.403 -27.829 -57.665  0.00  0.00     0.069 C 
HETATM    8  C   UNK     0      12.425 -29.401 -54.274  0.00  0.00     0.130 C 
HETATM    9  C   UNK     0      14.435 -26.823 -57.204  0.00  0.00     0.042 A 
HETATM   10  C   UNK     0      11.977 -29.840 -57.002  0.00  0.00     0.044 C 
HETATM   11  C   UNK     0      15.018 -25.990 -58.094  0.00  0.00     0.091 A 
HETATM   12  C   UNK     0      13.371 -30.548 -53.914  0.00  0.00     0.040 C 
HETATM   13  C   UNK     0      11.096 -30.227 -56.070  0.00  0.00     0.148 C 
HETATM   14  C   UNK     0      15.719 -25.776 -55.414  0.00  0.00     0.092 A 
HETATM   15  C   UNK     0      15.987 -25.005 -57.632  0.00  0.00     0.009 A 
HETATM   16  C   UNK     0      16.336 -24.909 -56.237  0.00  0.00     0.032 A 
HETATM   17  C   UNK     0      16.416 -24.298 -58.677  0.00  0.00     0.005 A 
HETATM   18  C   UNK     0      15.651 -24.913 -59.787  0.00  0.00     0.068 A 
HETATM   19  C   UNK     0      17.330 -23.225 -58.899  0.00  0.00     0.014 A 
HETATM   20  C   UNK     0      15.883 -24.356 -61.139  0.00  0.00     0.032 A 
HETATM   21  C   UNK     0      17.490 -22.771 -60.152  0.00  0.00     0.001 A 
HETATM   22  C   UNK     0      16.760 -23.346 -61.271  0.00  0.00     0.002 A 
ENDROOT
BRANCH  10  23
HETATM   23  C   UNK     0      11.731 -30.314 -58.366  0.00  0.00     0.291 C 
HETATM   24  O   UNK     0      12.614 -30.477 -59.194  0.00  0.00    -0.260 OA
BRANCH  23  25
HETATM   25  O   UNK     0      10.400 -30.527 -58.519  0.00  0.00    -0.323 OA
HETATM   26  C   UNK     0      10.002 -31.029 -59.799  0.00  0.00     0.213 C 
ENDBRANCH  23  25
ENDBRANCH  10  23
TORSDOF 2
ENDMDL
MODEL 7
REMARK VINA RESULT:      -7.1     16.097     19.823
REMARK  2 active torsions:
REMARK  status: ('A' for Active; 'I' for Inactive)
REMARK    1  A    between atoms: O_2  and  C_19 
REMARK    2  A    between atoms: C_12  and  C_19 
ROOT
HETATM    1  O   UNK     0      24.714 -12.328 -62.886  0.00  0.00    -0.357 OA
HETATM    2  N   UNK     0      20.500 -12.681 -60.308  0.00  0.00    -0.358 N 
HETATM    3  N   UNK     0      18.397  -9.616 -60.607  0.00  0.00    -0.245 NA
HETATM    4  C   UNK     0      22.625 -12.497 -61.587  0.00  0.00     0.042 C 
HETATM    5  C   UNK     0      22.617 -10.983 -61.300  0.00  0.00     0.040 C 
HETATM    6  C   UNK     0      21.856 -13.224 -60.484  0.00  0.00     0.136 C 
HETATM    7  C   UNK     0      21.165 -10.492 -61.416  0.00  0.00     0.069 C 
HETATM    8  C   UNK     0      24.056 -13.024 -61.810  0.00  0.00     0.130 C 
HETATM    9  C   UNK     0      20.164 -11.345 -60.667  0.00  0.00     0.042 A 
HETATM   10  C   UNK     0      23.575 -10.301 -62.237  0.00  0.00     0.044 C 
HETATM   11  C   UNK     0      18.945 -10.851 -60.359  0.00  0.00     0.091 A 
HETATM   12  C   UNK     0      24.969 -13.003 -60.582  0.00  0.00     0.040 C 
HETATM   13  C   UNK     0      24.488 -10.976 -62.947  0.00  0.00     0.148 C 
HETATM   14  C   UNK     0      19.544 -13.465 -59.632  0.00  0.00     0.092 A 
HETATM   15  C   UNK     0      17.979 -11.693 -59.666  0.00  0.00     0.009 A 
HETATM   16  C   UNK     0      18.310 -13.047 -59.298  0.00  0.00     0.032 A 
HETATM   17  C   UNK     0      16.857 -11.000 -59.480  0.00  0.00     0.005 A 
HETATM   18  C   UNK     0      17.202  -9.701 -60.101  0.00  0.00     0.068 A 
HETATM   19  C   UNK     0      15.579 -11.235 -58.889  0.00  0.00     0.014 A 
HETATM   20  C   UNK     0      16.153  -8.656 -60.077  0.00  0.00     0.032 A 
HETATM   21  C   UNK     0      14.676 -10.241 -58.904  0.00  0.00     0.001 A 
HETATM   22  C   UNK     0      14.974  -8.949 -59.503  0.00  0.00     0.002 A 
ENDROOT
BRANCH  10  23
HETATM   23  C   UNK     0      23.568  -8.846 -62.404  0.00  0.00     0.291 C 
HETATM   24  O   UNK     0      23.189  -8.284 -63.420  0.00  0.00    -0.260 OA
BRANCH  23  25
HETATM   25  O   UNK     0      24.039  -8.275 -61.267  0.00  0.00    -0.323 OA
HETATM   26  C   UNK     0      24.219  -6.856 -61.322  0.00  0.00     0.213 C 
ENDBRANCH  23  25
ENDBRANCH  10  23
TORSDOF 2
ENDMDL
MODEL 8
REMARK VINA RESULT:      -6.9     13.100     16.169
REMARK  2 active torsions:
REMARK  status: ('A' for Active; 'I' for Inactive)
REMARK    1  A    between atoms: O_2  and  C_19 
REMARK    2  A    between atoms: C_12  and  C_19 
ROOT
HETATM    1  O   UNK     0       4.711 -28.836 -49.761  0.00  0.00    -0.357 OA
HETATM    2  N   UNK     0       8.349 -27.041 -52.603  0.00  0.00    -0.358 N 
HETATM    3  N   UNK     0      11.235 -29.390 -52.860  0.00  0.00    -0.245 NA
HETATM    4  C   UNK     0       6.530 -27.933 -51.161  0.00  0.00     0.042 C 
HETATM    5  C   UNK     0       7.605 -28.650 -50.321  0.00  0.00     0.040 C 
HETATM    6  C   UNK     0       7.146 -26.703 -51.825  0.00  0.00     0.136 C 
HETATM    7  C   UNK     0       8.669 -29.194 -51.289  0.00  0.00     0.069 C 
HETATM    8  C   UNK     0       5.268 -27.634 -50.328  0.00  0.00     0.130 C 
HETATM    9  C   UNK     0       9.147 -28.184 -52.310  0.00  0.00     0.042 A 
HETATM   10  C   UNK     0       6.946 -29.705 -49.477  0.00  0.00     0.044 C 
HETATM   11  C   UNK     0      10.314 -28.375 -52.962  0.00  0.00     0.091 A 
HETATM   12  C   UNK     0       5.440 -26.600 -49.213  0.00  0.00     0.040 C 
HETATM   13  C   UNK     0       5.621 -29.745 -49.283  0.00  0.00     0.148 C 
HETATM   14  C   UNK     0       8.802 -26.126 -53.574  0.00  0.00     0.092 A 
HETATM   15  C   UNK     0      10.747 -27.411 -53.965  0.00  0.00     0.009 A 
HETATM   16  C   UNK     0       9.947 -26.251 -54.269  0.00  0.00     0.032 A 
HETATM   17  C   UNK     0      11.911 -27.811 -54.474  0.00  0.00     0.005 A 
HETATM   18  C   UNK     0      12.150 -29.066 -53.724  0.00  0.00     0.068 A 
HETATM   19  C   UNK     0      12.832 -27.336 -55.456  0.00  0.00     0.014 A 
HETATM   20  C   UNK     0      13.393 -29.802 -54.044  0.00  0.00     0.032 A 
HETATM   21  C   UNK     0      13.939 -28.057 -55.695  0.00  0.00     0.001 A 
HETATM   22  C   UNK     0      14.214 -29.294 -54.980  0.00  0.00     0.002 A 
ENDROOT
BRANCH  10  23
HETATM   23  C   UNK     0       7.732 -30.739 -48.800  0.00  0.00     0.291 C 
HETATM   24  O   UNK     0       7.952 -31.842 -49.277  0.00  0.00    -0.260 OA
BRANCH  23  25
HETATM   25  O   UNK     0       8.149 -30.256 -47.603  0.00  0.00    -0.323 OA
HETATM   26  C   UNK     0       7.917 -31.113 -46.481  0.00  0.00     0.213 C 
ENDBRANCH  23  25
ENDBRANCH  10  23
TORSDOF 2
ENDMDL
MODEL 9
REMARK VINA RESULT:      -6.8     15.864     18.234
REMARK  2 active torsions:
REMARK  status: ('A' for Active; 'I' for Inactive)
REMARK    1  A    between atoms: O_2  and  C_19 
REMARK    2  A    between atoms: C_12  and  C_19 
ROOT
HETATM    1  O   UNK     0       8.940   2.336 -47.409  0.00  0.00    -0.357 OA
HETATM    2  N   UNK     0       7.649   0.966 -51.990  0.00  0.00    -0.358 N 
HETATM    3  N   UNK     0       4.966   3.133 -53.412  0.00  0.00    -0.245 NA
HETATM    4  C   UNK     0       8.284   1.641 -49.683  0.00  0.00     0.042 C 
HETATM    5  C   UNK     0       6.829   2.095 -49.460  0.00  0.00     0.040 C 
HETATM    6  C   UNK     0       8.314   0.545 -50.747  0.00  0.00     0.136 C 
HETATM    7  C   UNK     0       6.344   2.765 -50.756  0.00  0.00     0.069 C 
HETATM    8  C   UNK     0       8.965   1.250 -48.356  0.00  0.00     0.130 C 
HETATM    9  C   UNK     0       6.637   1.968 -52.009  0.00  0.00     0.042 A 
HETATM   10  C   UNK     0       6.771   2.984 -48.249  0.00  0.00     0.044 C 
HETATM   11  C   UNK     0       5.961   2.222 -53.151  0.00  0.00     0.091 A 
HETATM   12  C   UNK     0       8.417  -0.006 -47.676  0.00  0.00     0.040 C 
HETATM   13  C   UNK     0       7.778   3.064 -47.369  0.00  0.00     0.148 C 
HETATM   14  C   UNK     0       7.921   0.253 -53.174  0.00  0.00     0.092 A 
HETATM   15  C   UNK     0       6.275   1.469 -54.358  0.00  0.00     0.009 A 
HETATM   16  C   UNK     0       7.297   0.452 -54.349  0.00  0.00     0.032 A 
HETATM   17  C   UNK     0       5.494   1.895 -55.349  0.00  0.00     0.005 A 
HETATM   18  C   UNK     0       4.698   2.944 -54.670  0.00  0.00     0.068 A 
HETATM   19  C   UNK     0       5.306   1.585 -56.729  0.00  0.00     0.014 A 
HETATM   20  C   UNK     0       3.696   3.654 -55.497  0.00  0.00     0.032 A 
HETATM   21  C   UNK     0       4.379   2.270 -57.417  0.00  0.00     0.001 A 
HETATM   22  C   UNK     0       3.574   3.307 -56.790  0.00  0.00     0.002 A 
ENDROOT
BRANCH  10  23
HETATM   23  C   UNK     0       5.590   3.800 -47.960  0.00  0.00     0.291 C 
HETATM   24  O   UNK     0       5.568   5.017 -48.057  0.00  0.00    -0.260 OA
BRANCH  23  25
HETATM   25  O   UNK     0       4.576   2.980 -47.584  0.00  0.00    -0.323 OA
HETATM   26  C   UNK     0       3.873   3.375 -46.402  0.00  0.00     0.213 C 
ENDBRANCH  23  25
ENDBRANCH  10  23
TORSDOF 2
ENDMDL
