REMARK  5 active torsions:
REMARK  status: ('A' for Active; 'I' for Inactive)
REMARK    1  A    between atoms: O_1  and  C_15 
REMARK    2  A    between atoms: O_2  and  C_19 
REMARK    3  A    between atoms: O_3  and  C_20 
REMARK    4  A    between atoms: O_4  and  C_24 
REMARK    5  A    between atoms: N_7  and  C_8 
REMARK       I    between atoms: N_7  and  C_22 
ROOT
HETATM    1  O   UNK     0       0.709   1.962  -1.422  0.00  0.00    -0.352 OA
HETATM    2  C   UNK     0       0.576   1.237  -2.641  0.00  0.00     0.210 C 
ENDROOT
BRANCH   1   3
HETATM    3  C   UNK     0       1.320   1.318  -0.384  0.00  0.00     0.116 A 
HETATM    4  C   UNK     0       0.575   0.558   0.531  0.00  0.00     0.017 A 
HETATM    5  C   UNK     0       1.240  -0.132   1.567  0.00  0.00    -0.041 A 
HETATM    6  C   UNK     0      -0.908   0.442   0.399  0.00  0.00    -0.014 C 
HETATM    7  C   UNK     0       0.455  -0.981   2.531  0.00  0.00     0.042 C 
HETATM    8  C   UNK     0       2.634  -0.036   1.676  0.00  0.00     0.047 A 
HETATM    9  C   UNK     0      -0.150  -2.239   1.893  0.00  0.00     0.034 C 
HETATM   10  C   UNK     0      -0.727  -2.119   0.463  0.00  0.00     0.119 C 
HETATM   11  C   UNK     0      -1.549  -0.861   0.165  0.00  0.00    -0.020 C 
HETATM   12  C   UNK     0      -2.770  -1.039  -0.371  0.00  0.00     0.068 C 
HETATM   13  C   UNK     0      -3.783  -0.036  -0.776  0.00  0.00     0.205 C 
HETATM   14  O   UNK     0      -4.555  -0.293  -1.698  0.00  0.00    -0.285 OA
HETATM   15  C   UNK     0      -3.963   1.197   0.024  0.00  0.00     0.118 C 
HETATM   16  C   UNK     0      -2.980   1.851   0.648  0.00  0.00     0.042 C 
HETATM   17  C   UNK     0      -1.564   1.599   0.611  0.00  0.00     0.016 C 
HETATM   18  C   UNK     0       3.362   0.731   0.766  0.00  0.00     0.104 A 
HETATM   19  C   UNK     0       2.707   1.405  -0.262  0.00  0.00     0.136 A 
BRANCH  10  20
HETATM   20  N   UNK     0       0.300  -2.266  -0.550  0.00  0.00    -0.353 N 
HETATM   21  C   UNK     0       0.773  -3.495  -0.969  0.00  0.00     0.214 C 
HETATM   22  O   UNK     0       0.403  -4.591  -0.556  0.00  0.00    -0.274 OA
HETATM   23  C   UNK     0       1.816  -3.362  -2.046  0.00  0.00     0.117 C 
HETATM   24  H   UNK     0       0.682  -1.437  -0.995  0.00  0.00     0.163 HD
ENDBRANCH  10  20
BRANCH  15  25
HETATM   25  O   UNK     0      -5.252   1.704   0.094  0.00  0.00    -0.352 OA
HETATM   26  C   UNK     0      -5.941   1.152   1.196  0.00  0.00     0.210 C 
ENDBRANCH  15  25
BRANCH  18  27
HETATM   27  O   UNK     0       4.716   0.808   0.892  0.00  0.00    -0.353 OA
HETATM   28  C   UNK     0       5.488  -0.174   0.203  0.00  0.00     0.210 C 
ENDBRANCH  18  27
BRANCH  19  29
HETATM   29  O   UNK     0       3.426   2.145  -1.155  0.00  0.00    -0.351 OA
HETATM   30  C   UNK     0       3.644   3.516  -0.831  0.00  0.00     0.210 C 
ENDBRANCH  19  29
ENDBRANCH   1   3
TORSDOF 5
