MODEL 1
REMARK VINA RESULT:      -7.1      0.000      0.000
REMARK  5 active torsions:
REMARK  status: ('A' for Active; 'I' for Inactive)
REMARK    1  A    between atoms: O_1  and  C_15 
REMARK    2  A    between atoms: O_2  and  C_19 
REMARK    3  A    between atoms: O_3  and  C_20 
REMARK    4  A    between atoms: O_4  and  C_24 
REMARK    5  A    between atoms: N_7  and  C_8 
REMARK       I    between atoms: N_7  and  C_22 
ROOT
HETATM    1  O   UNK     0       4.290   4.320 -53.612  0.00  0.00    -0.352 OA
HETATM    2  C   UNK     0       4.980   5.483 -54.059  0.00  0.00     0.210 C 
ENDROOT
BRANCH   1   3
HETATM    3  C   UNK     0       5.055   3.280 -53.167  0.00  0.00     0.116 A 
HETATM    4  C   UNK     0       5.591   2.344 -54.066  0.00  0.00     0.017 A 
HETATM    5  C   UNK     0       6.414   1.306 -53.581  0.00  0.00    -0.041 A 
HETATM    6  C   UNK     0       5.329   2.455 -55.532  0.00  0.00    -0.014 C 
HETATM    7  C   UNK     0       7.025   0.319 -54.540  0.00  0.00     0.042 C 
HETATM    8  C   UNK     0       6.673   1.215 -52.206  0.00  0.00     0.047 A 
HETATM    9  C   UNK     0       8.096   0.930 -55.454  0.00  0.00     0.034 C 
HETATM   10  C   UNK     0       7.851   2.354 -56.004  0.00  0.00     0.119 C 
HETATM   11  C   UNK     0       6.429   2.661 -56.485  0.00  0.00    -0.020 C 
HETATM   12  C   UNK     0       6.298   3.179 -57.720  0.00  0.00     0.068 C 
HETATM   13  C   UNK     0       5.076   3.587 -58.452  0.00  0.00     0.205 C 
HETATM   14  O   UNK     0       5.140   4.495 -59.279  0.00  0.00    -0.285 OA
HETATM   15  C   UNK     0       3.829   2.804 -58.302  0.00  0.00     0.118 C 
HETATM   16  C   UNK     0       3.438   2.203 -57.175  0.00  0.00     0.042 C 
HETATM   17  C   UNK     0       4.041   2.253 -55.870  0.00  0.00     0.016 C 
HETATM   18  C   UNK     0       6.127   2.146 -51.322  0.00  0.00     0.104 A 
HETATM   19  C   UNK     0       5.321   3.176 -51.802  0.00  0.00     0.136 A 
BRANCH  10  20
HETATM   20  N   UNK     0       8.265   3.377 -55.064  0.00  0.00    -0.353 N 
HETATM   21  C   UNK     0       9.324   4.233 -55.302  0.00  0.00     0.214 C 
HETATM   22  O   UNK     0      10.033   4.245 -56.305  0.00  0.00    -0.274 OA
HETATM   23  C   UNK     0       9.522   5.213 -54.177  0.00  0.00     0.117 C 
HETATM   24  H   UNK     0       7.749   3.495 -54.197  0.00  0.00     0.163 HD
ENDBRANCH  10  20
BRANCH  15  25
HETATM   25  O   UNK     0       3.011   2.726 -59.419  0.00  0.00    -0.352 OA
HETATM   26  C   UNK     0       3.333   1.586 -60.188  0.00  0.00     0.210 C 
ENDBRANCH  15  25
BRANCH  18  27
HETATM   27  O   UNK     0       6.394   2.038 -49.991  0.00  0.00    -0.353 OA
HETATM   28  C   UNK     0       7.133   0.893 -49.569  0.00  0.00     0.210 C 
ENDBRANCH  18  27
BRANCH  19  29
HETATM   29  O   UNK     0       4.798   4.090 -50.933  0.00  0.00    -0.351 OA
HETATM   30  C   UNK     0       5.654   5.151 -50.518  0.00  0.00     0.210 C 
ENDBRANCH  19  29
ENDBRANCH   1   3
TORSDOF 5
ENDMDL
MODEL 2
REMARK VINA RESULT:      -6.9      0.931      1.031
REMARK  5 active torsions:
REMARK  status: ('A' for Active; 'I' for Inactive)
REMARK    1  A    between atoms: O_1  and  C_15 
REMARK    2  A    between atoms: O_2  and  C_19 
REMARK    3  A    between atoms: O_3  and  C_20 
REMARK    4  A    between atoms: O_4  and  C_24 
REMARK    5  A    between atoms: N_7  and  C_8 
REMARK       I    between atoms: N_7  and  C_22 
ROOT
HETATM    1  O   UNK     0       4.441   5.371 -53.494  0.00  0.00    -0.352 OA
HETATM    2  C   UNK     0       5.387   6.302 -54.010  0.00  0.00     0.210 C 
ENDROOT
BRANCH   1   3
HETATM    3  C   UNK     0       4.939   4.297 -52.813  0.00  0.00     0.116 A 
HETATM    4  C   UNK     0       5.327   3.131 -53.491  0.00  0.00     0.017 A 
HETATM    5  C   UNK     0       5.879   2.055 -52.764  0.00  0.00    -0.041 A 
HETATM    6  C   UNK     0       5.194   3.031 -54.975  0.00  0.00    -0.014 C 
HETATM    7  C   UNK     0       6.334   0.814 -53.486  0.00  0.00     0.042 C 
HETATM    8  C   UNK     0       6.020   2.160 -51.374  0.00  0.00     0.047 A 
HETATM    9  C   UNK     0       7.569   1.033 -54.371  0.00  0.00     0.034 C 
HETATM   10  C   UNK     0       7.666   2.358 -55.163  0.00  0.00     0.119 C 
HETATM   11  C   UNK     0       6.376   2.846 -55.831  0.00  0.00    -0.020 C 
HETATM   12  C   UNK     0       6.441   3.153 -57.139  0.00  0.00     0.068 C 
HETATM   13  C   UNK     0       5.384   3.655 -58.049  0.00  0.00     0.205 C 
HETATM   14  O   UNK     0       5.693   4.372 -58.998  0.00  0.00    -0.285 OA
HETATM   15  C   UNK     0       3.993   3.169 -57.904  0.00  0.00     0.118 C 
HETATM   16  C   UNK     0       3.409   2.864 -56.743  0.00  0.00     0.042 C 
HETATM   17  C   UNK     0       3.919   3.027 -55.407  0.00  0.00     0.016 C 
HETATM   18  C   UNK     0       5.621   3.321 -50.711  0.00  0.00     0.104 A 
HETATM   19  C   UNK     0       5.084   4.387 -51.428  0.00  0.00     0.136 A 
BRANCH  10  20
HETATM   20  N   UNK     0       8.220   3.430 -54.361  0.00  0.00    -0.353 N 
HETATM   21  C   UNK     0       9.268   4.225 -54.787  0.00  0.00     0.214 C 
HETATM   22  O   UNK     0       9.851   4.134 -55.864  0.00  0.00    -0.274 OA
HETATM   23  C   UNK     0       9.629   5.276 -53.772  0.00  0.00     0.117 C 
HETATM   24  H   UNK     0       7.816   3.631 -53.451  0.00  0.00     0.163 HD
ENDBRANCH  10  20
BRANCH  15  25
HETATM   25  O   UNK     0       3.255   3.056 -59.073  0.00  0.00    -0.352 OA
HETATM   26  C   UNK     0       3.540   1.834 -59.721  0.00  0.00     0.210 C 
ENDBRANCH  15  25
BRANCH  18  27
HETATM   27  O   UNK     0       5.769   3.401 -49.359  0.00  0.00    -0.353 OA
HETATM   28  C   UNK     0       6.347   2.274 -48.703  0.00  0.00     0.210 C 
ENDBRANCH  18  27
BRANCH  19  29
HETATM   29  O   UNK     0       4.706   5.524 -50.774  0.00  0.00    -0.351 OA
HETATM   30  C   UNK     0       5.735   6.454 -50.447  0.00  0.00     0.210 C 
ENDBRANCH  19  29
ENDBRANCH   1   3
TORSDOF 5
ENDMDL
MODEL 3
REMARK VINA RESULT:      -6.1     11.743     14.623
REMARK  5 active torsions:
REMARK  status: ('A' for Active; 'I' for Inactive)
REMARK    1  A    between atoms: O_1  and  C_15 
REMARK    2  A    between atoms: O_2  and  C_19 
REMARK    3  A    between atoms: O_3  and  C_20 
REMARK    4  A    between atoms: O_4  and  C_24 
REMARK    5  A    between atoms: N_7  and  C_8 
REMARK       I    between atoms: N_7  and  C_22 
ROOT
HETATM    1  O   UNK     0      15.442  -7.400 -49.967  0.00  0.00    -0.352 OA
HETATM    2  C   UNK     0      14.562  -6.339 -49.608  0.00  0.00     0.210 C 
ENDROOT
BRANCH   1   3
HETATM    3  C   UNK     0      15.871  -7.434 -51.264  0.00  0.00     0.116 A 
HETATM    4  C   UNK     0      15.093  -8.036 -52.265  0.00  0.00     0.017 A 
HETATM    5  C   UNK     0      15.543  -8.016 -53.602  0.00  0.00    -0.041 A 
HETATM    6  C   UNK     0      13.779  -8.665 -51.936  0.00  0.00    -0.014 C 
HETATM    7  C   UNK     0      14.699  -8.625 -54.689  0.00  0.00     0.042 C 
HETATM    8  C   UNK     0      16.768  -7.408 -53.909  0.00  0.00     0.047 A 
HETATM    9  C   UNK     0      13.402  -7.853 -54.968  0.00  0.00     0.034 C 
HETATM   10  C   UNK     0      12.637  -7.263 -53.760  0.00  0.00     0.119 C 
HETATM   11  C   UNK     0      12.529  -8.158 -52.521  0.00  0.00    -0.020 C 
HETATM   12  C   UNK     0      11.300  -8.347 -52.007  0.00  0.00     0.068 C 
HETATM   13  C   UNK     0      10.877  -9.136 -50.826  0.00  0.00     0.205 C 
HETATM   14  O   UNK     0       9.884  -8.789 -50.190  0.00  0.00    -0.285 OA
HETATM   15  C   UNK     0      11.554 -10.415 -50.512  0.00  0.00     0.118 C 
HETATM   16  C   UNK     0      12.851 -10.661 -50.714  0.00  0.00     0.042 C 
HETATM   17  C   UNK     0      13.881  -9.760 -51.159  0.00  0.00     0.016 C 
HETATM   18  C   UNK     0      17.537  -6.821 -52.903  0.00  0.00     0.104 A 
HETATM   19  C   UNK     0      17.089  -6.833 -51.584  0.00  0.00     0.136 A 
BRANCH  10  20
HETATM   20  N   UNK     0      13.161  -5.970 -53.367  0.00  0.00    -0.353 N 
HETATM   21  C   UNK     0      12.357  -4.933 -52.932  0.00  0.00     0.214 C 
HETATM   22  O   UNK     0      11.133  -4.964 -52.823  0.00  0.00    -0.274 OA
HETATM   23  C   UNK     0      13.157  -3.713 -52.563  0.00  0.00     0.117 C 
HETATM   24  H   UNK     0      14.164  -5.812 -53.387  0.00  0.00     0.163 HD
ENDBRANCH  10  20
BRANCH  15  25
HETATM   25  O   UNK     0      10.767 -11.405 -49.943  0.00  0.00    -0.352 OA
HETATM   26  C   UNK     0      11.350 -12.676 -50.145  0.00  0.00     0.210 C 
ENDBRANCH  15  25
BRANCH  18  27
HETATM   27  O   UNK     0      18.723  -6.236 -53.227  0.00  0.00    -0.353 OA
HETATM   28  C   UNK     0      19.524  -6.892 -54.208  0.00  0.00     0.210 C 
ENDBRANCH  18  27
BRANCH  19  29
HETATM   29  O   UNK     0      17.840  -6.249 -50.607  0.00  0.00    -0.351 OA
HETATM   30  C   UNK     0      17.722  -4.836 -50.458  0.00  0.00     0.210 C 
ENDBRANCH  19  29
ENDBRANCH   1   3
TORSDOF 5
ENDMDL
MODEL 4
REMARK VINA RESULT:      -6.0      2.466      6.675
REMARK  5 active torsions:
REMARK  status: ('A' for Active; 'I' for Inactive)
REMARK    1  A    between atoms: O_1  and  C_15 
REMARK    2  A    between atoms: O_2  and  C_19 
REMARK    3  A    between atoms: O_3  and  C_20 
REMARK    4  A    between atoms: O_4  and  C_24 
REMARK    5  A    between atoms: N_7  and  C_8 
REMARK       I    between atoms: N_7  and  C_22 
ROOT
HETATM    1  O   UNK     0       9.486   3.925 -53.304  0.00  0.00    -0.352 OA
HETATM    2  C   UNK     0       8.686   4.681 -52.399  0.00  0.00     0.210 C 
ENDROOT
BRANCH   1   3
HETATM    3  C   UNK     0       8.995   3.755 -54.567  0.00  0.00     0.116 A 
HETATM    4  C   UNK     0       8.184   2.654 -54.883  0.00  0.00     0.017 A 
HETATM    5  C   UNK     0       7.656   2.529 -56.186  0.00  0.00    -0.041 A 
HETATM    6  C   UNK     0       7.844   1.634 -53.847  0.00  0.00    -0.014 C 
HETATM    7  C   UNK     0       6.753   1.373 -56.524  0.00  0.00     0.042 C 
HETATM    8  C   UNK     0       7.962   3.499 -57.150  0.00  0.00     0.047 A 
HETATM    9  C   UNK     0       5.388   1.432 -55.827  0.00  0.00     0.034 C 
HETATM   10  C   UNK     0       5.345   1.925 -54.361  0.00  0.00     0.119 C 
HETATM   11  C   UNK     0       6.450   1.405 -53.437  0.00  0.00    -0.020 C 
HETATM   12  C   UNK     0       6.066   0.851 -52.272  0.00  0.00     0.068 C 
HETATM   13  C   UNK     0       6.885   0.277 -51.179  0.00  0.00     0.205 C 
HETATM   14  O   UNK     0       6.468   0.319 -50.023  0.00  0.00    -0.285 OA
HETATM   15  C   UNK     0       8.119  -0.477 -51.498  0.00  0.00     0.118 C 
HETATM   16  C   UNK     0       8.943  -0.196 -52.511  0.00  0.00     0.042 C 
HETATM   17  C   UNK     0       8.901   0.913 -53.427  0.00  0.00     0.016 C 
HETATM   18  C   UNK     0       8.778   4.583 -56.826  0.00  0.00     0.104 A 
HETATM   19  C   UNK     0       9.292   4.712 -55.538  0.00  0.00     0.136 A 
BRANCH  10  20
HETATM   20  N   UNK     0       5.296   3.371 -54.277  0.00  0.00    -0.353 N 
HETATM   21  C   UNK     0       4.305   4.053 -53.597  0.00  0.00     0.214 C 
HETATM   22  O   UNK     0       3.363   3.546 -52.994  0.00  0.00    -0.274 OA
HETATM   23  C   UNK     0       4.508   5.543 -53.646  0.00  0.00     0.117 C 
HETATM   24  H   UNK     0       6.030   3.920 -54.715  0.00  0.00     0.163 HD
ENDBRANCH  10  20
BRANCH  15  25
HETATM   25  O   UNK     0       8.434  -1.531 -50.654  0.00  0.00    -0.352 OA
HETATM   26  C   UNK     0       9.779  -1.443 -50.234  0.00  0.00     0.210 C 
ENDBRANCH  15  25
BRANCH  18  27
HETATM   27  O   UNK     0       9.060   5.513 -57.780  0.00  0.00    -0.353 OA
HETATM   28  C   UNK     0       9.987   5.138 -58.798  0.00  0.00     0.210 C 
ENDBRANCH  18  27
BRANCH  19  29
HETATM   29  O   UNK     0      10.081   5.780 -55.225  0.00  0.00    -0.351 OA
HETATM   30  C   UNK     0      11.488   5.613 -55.383  0.00  0.00     0.210 C 
ENDBRANCH  19  29
ENDBRANCH   1   3
TORSDOF 5
ENDMDL
MODEL 5
REMARK VINA RESULT:      -6.0     27.996     30.285
REMARK  5 active torsions:
REMARK  status: ('A' for Active; 'I' for Inactive)
REMARK    1  A    between atoms: O_1  and  C_15 
REMARK    2  A    between atoms: O_2  and  C_19 
REMARK    3  A    between atoms: O_3  and  C_20 
REMARK    4  A    between atoms: O_4  and  C_24 
REMARK    5  A    between atoms: N_7  and  C_8 
REMARK       I    between atoms: N_7  and  C_22 
ROOT
HETATM    1  O   UNK     0       7.369 -29.208 -51.161  0.00  0.00    -0.352 OA
HETATM    2  C   UNK     0       6.429 -29.595 -52.159  0.00  0.00     0.210 C 
ENDROOT
BRANCH   1   3
HETATM    3  C   UNK     0       7.047 -28.122 -50.398  0.00  0.00     0.116 A 
HETATM    4  C   UNK     0       7.427 -26.828 -50.789  0.00  0.00     0.017 A 
HETATM    5  C   UNK     0       7.042 -25.722 -50.001  0.00  0.00    -0.041 A 
HETATM    6  C   UNK     0       8.202 -26.606 -52.046  0.00  0.00    -0.014 C 
HETATM    7  C   UNK     0       7.410 -24.327 -50.431  0.00  0.00     0.042 C 
HETATM    8  C   UNK     0       6.298 -25.933 -48.832  0.00  0.00     0.047 A 
HETATM    9  C   UNK     0       6.678 -23.859 -51.696  0.00  0.00     0.034 C 
HETATM   10  C   UNK     0       6.462 -24.888 -52.831  0.00  0.00     0.119 C 
HETATM   11  C   UNK     0       7.645 -25.807 -53.148  0.00  0.00    -0.020 C 
HETATM   12  C   UNK     0       8.036 -25.882 -54.434  0.00  0.00     0.068 C 
HETATM   13  C   UNK     0       9.123 -26.679 -55.049  0.00  0.00     0.205 C 
HETATM   14  O   UNK     0       9.013 -27.055 -56.215  0.00  0.00    -0.285 OA
HETATM   15  C   UNK     0      10.394 -26.885 -54.317  0.00  0.00     0.118 C 
HETATM   16  C   UNK     0      10.497 -27.024 -52.993  0.00  0.00     0.042 C 
HETATM   17  C   UNK     0       9.449 -27.114 -52.012  0.00  0.00     0.016 C 
HETATM   18  C   UNK     0       5.936 -27.225 -48.449  0.00  0.00     0.104 A 
HETATM   19  C   UNK     0       6.308 -28.316 -49.231  0.00  0.00     0.136 A 
BRANCH  10  20
HETATM   20  N   UNK     0       5.278 -25.696 -52.611  0.00  0.00    -0.353 N 
HETATM   21  C   UNK     0       4.021 -25.322 -53.045  0.00  0.00     0.214 C 
HETATM   22  O   UNK     0       3.743 -24.291 -53.652  0.00  0.00    -0.274 OA
HETATM   23  C   UNK     0       2.977 -26.353 -52.709  0.00  0.00     0.117 C 
HETATM   24  H   UNK     0       5.367 -26.590 -52.138  0.00  0.00     0.163 HD
ENDBRANCH  10  20
BRANCH  15  25
HETATM   25  O   UNK     0      11.544 -26.961 -55.088  0.00  0.00    -0.352 OA
HETATM   26  C   UNK     0      12.539 -27.709 -54.420  0.00  0.00     0.210 C 
ENDBRANCH  15  25
BRANCH  18  27
HETATM   27  O   UNK     0       5.212 -27.404 -47.309  0.00  0.00    -0.353 OA
HETATM   28  C   UNK     0       5.922 -27.338 -46.074  0.00  0.00     0.210 C 
ENDBRANCH  18  27
BRANCH  19  29
HETATM   29  O   UNK     0       5.942 -29.576 -48.856  0.00  0.00    -0.351 OA
HETATM   30  C   UNK     0       6.886 -30.323 -48.093  0.00  0.00     0.210 C 
ENDBRANCH  19  29
ENDBRANCH   1   3
TORSDOF 5
ENDMDL
MODEL 6
REMARK VINA RESULT:      -5.9     29.747     32.105
REMARK  5 active torsions:
REMARK  status: ('A' for Active; 'I' for Inactive)
REMARK    1  A    between atoms: O_1  and  C_15 
REMARK    2  A    between atoms: O_2  and  C_19 
REMARK    3  A    between atoms: O_3  and  C_20 
REMARK    4  A    between atoms: O_4  and  C_24 
REMARK    5  A    between atoms: N_7  and  C_8 
REMARK       I    between atoms: N_7  and  C_22 
ROOT
HETATM    1  O   UNK     0       9.868 -26.921 -52.396  0.00  0.00    -0.352 OA
HETATM    2  C   UNK     0      10.197 -28.044 -51.583  0.00  0.00     0.210 C 
ENDROOT
BRANCH   1   3
HETATM    3  C   UNK     0       8.721 -27.008 -53.132  0.00  0.00     0.116 A 
HETATM    4  C   UNK     0       8.669 -27.790 -54.296  0.00  0.00     0.017 A 
HETATM    5  C   UNK     0       7.457 -27.895 -55.011  0.00  0.00    -0.041 A 
HETATM    6  C   UNK     0       9.871 -28.541 -54.766  0.00  0.00    -0.014 C 
HETATM    7  C   UNK     0       7.380 -28.761 -56.240  0.00  0.00     0.042 C 
HETATM    8  C   UNK     0       6.325 -27.204 -54.556  0.00  0.00     0.047 A 
HETATM    9  C   UNK     0       7.495 -30.263 -55.943  0.00  0.00     0.034 C 
HETATM   10  C   UNK     0       8.499 -30.710 -54.854  0.00  0.00     0.119 C 
HETATM   11  C   UNK     0       9.861 -30.009 -54.856  0.00  0.00    -0.020 C 
HETATM   12  C   UNK     0      10.954 -30.793 -54.854  0.00  0.00     0.068 C 
HETATM   13  C   UNK     0      12.388 -30.420 -54.843  0.00  0.00     0.205 C 
HETATM   14  O   UNK     0      13.205 -31.171 -54.313  0.00  0.00    -0.285 OA
HETATM   15  C   UNK     0      12.849 -29.234 -55.600  0.00  0.00     0.118 C 
HETATM   16  C   UNK     0      12.145 -28.110 -55.758  0.00  0.00     0.042 C 
HETATM   17  C   UNK     0      10.881 -27.749 -55.175  0.00  0.00     0.016 C 
HETATM   18  C   UNK     0       6.393 -26.421 -53.403  0.00  0.00     0.104 A 
HETATM   19  C   UNK     0       7.587 -26.325 -52.692  0.00  0.00     0.136 A 
BRANCH  10  20
HETATM   20  N   UNK     0       7.926 -30.631 -53.524  0.00  0.00    -0.353 N 
HETATM   21  C   UNK     0       8.194 -31.557 -52.534  0.00  0.00     0.214 C 
HETATM   22  O   UNK     0       8.926 -32.537 -52.640  0.00  0.00    -0.274 OA
HETATM   23  C   UNK     0       7.492 -31.224 -51.244  0.00  0.00     0.117 C 
HETATM   24  H   UNK     0       7.316 -29.854 -53.291  0.00  0.00     0.163 HD
ENDBRANCH  10  20
BRANCH  15  25
HETATM   25  O   UNK     0      14.118 -29.310 -56.154  0.00  0.00    -0.352 OA
HETATM   26  C   UNK     0      14.975 -28.359 -55.559  0.00  0.00     0.210 C 
ENDBRANCH  15  25
BRANCH  18  27
HETATM   27  O   UNK     0       5.280 -25.760 -52.980  0.00  0.00    -0.353 OA
HETATM   28  C   UNK     0       4.816 -24.685 -53.795  0.00  0.00     0.210 C 
ENDBRANCH  18  27
BRANCH  19  29
HETATM   29  O   UNK     0       7.643 -25.566 -51.559  0.00  0.00    -0.351 OA
HETATM   30  C   UNK     0       7.151 -26.158 -50.360  0.00  0.00     0.210 C 
ENDBRANCH  19  29
ENDBRANCH   1   3
TORSDOF 5
ENDMDL
MODEL 7
REMARK VINA RESULT:      -5.6     11.902     14.128
REMARK  5 active torsions:
REMARK  status: ('A' for Active; 'I' for Inactive)
REMARK    1  A    between atoms: O_1  and  C_15 
REMARK    2  A    between atoms: O_2  and  C_19 
REMARK    3  A    between atoms: O_3  and  C_20 
REMARK    4  A    between atoms: O_4  and  C_24 
REMARK    5  A    between atoms: N_7  and  C_8 
REMARK       I    between atoms: N_7  and  C_22 
ROOT
HETATM    1  O   UNK     0      17.089  -6.624 -52.932  0.00  0.00    -0.352 OA
HETATM    2  C   UNK     0      17.458  -7.852 -52.312  0.00  0.00     0.210 C 
ENDROOT
BRANCH   1   3
HETATM    3  C   UNK     0      16.011  -5.967 -52.409  0.00  0.00     0.116 A 
HETATM    4  C   UNK     0      14.715  -6.220 -52.883  0.00  0.00     0.017 A 
HETATM    5  C   UNK     0      13.617  -5.559 -52.292  0.00  0.00    -0.041 A 
HETATM    6  C   UNK     0      14.480  -7.207 -53.978  0.00  0.00    -0.014 C 
HETATM    7  C   UNK     0      12.218  -5.851 -52.766  0.00  0.00     0.042 C 
HETATM    8  C   UNK     0      13.839  -4.647 -51.251  0.00  0.00     0.047 A 
HETATM    9  C   UNK     0      11.732  -7.264 -52.417  0.00  0.00     0.034 C 
HETATM   10  C   UNK     0      12.746  -8.426 -52.528  0.00  0.00     0.119 C 
HETATM   11  C   UNK     0      13.666  -8.412 -53.753  0.00  0.00    -0.020 C 
HETATM   12  C   UNK     0      13.726  -9.537 -54.488  0.00  0.00     0.068 C 
HETATM   13  C   UNK     0      14.520  -9.833 -55.704  0.00  0.00     0.205 C 
HETATM   14  O   UNK     0      14.882 -10.987 -55.925  0.00  0.00    -0.285 OA
HETATM   15  C   UNK     0      14.739  -8.777 -56.719  0.00  0.00     0.118 C 
HETATM   16  C   UNK     0      14.894  -7.479 -56.447  0.00  0.00     0.042 C 
HETATM   17  C   UNK     0      14.992  -6.832 -55.166  0.00  0.00     0.016 C 
HETATM   18  C   UNK     0      15.134  -4.397 -50.796  0.00  0.00     0.104 A 
HETATM   19  C   UNK     0      16.217  -5.056 -51.373  0.00  0.00     0.136 A 
BRANCH  10  20
HETATM   20  N   UNK     0      13.553  -8.557 -51.330  0.00  0.00    -0.353 N 
HETATM   21  C   UNK     0      13.131  -9.247 -50.210  0.00  0.00     0.214 C 
HETATM   22  O   UNK     0      12.053  -9.822 -50.079  0.00  0.00    -0.274 OA
HETATM   23  C   UNK     0      14.170  -9.249 -49.121  0.00  0.00     0.117 C 
HETATM   24  H   UNK     0      14.482  -8.146 -51.308  0.00  0.00     0.163 HD
ENDBRANCH  10  20
BRANCH  15  25
HETATM   25  O   UNK     0      14.810  -9.196 -58.039  0.00  0.00    -0.352 OA
HETATM   26  C   UNK     0      15.203  -8.129 -58.876  0.00  0.00     0.210 C 
ENDBRANCH  15  25
BRANCH  18  27
HETATM   27  O   UNK     0      15.325  -3.508 -49.783  0.00  0.00    -0.353 OA
HETATM   28  C   UNK     0      15.026  -3.957 -48.462  0.00  0.00     0.210 C 
ENDBRANCH  18  27
BRANCH  19  29
HETATM   29  O   UNK     0      17.480  -4.815 -50.916  0.00  0.00    -0.351 OA
HETATM   30  C   UNK     0      18.206  -3.763 -51.548  0.00  0.00     0.210 C 
ENDBRANCH  19  29
ENDBRANCH   1   3
TORSDOF 5
ENDMDL
MODEL 8
REMARK VINA RESULT:      -5.6     21.700     23.639
REMARK  5 active torsions:
REMARK  status: ('A' for Active; 'I' for Inactive)
REMARK    1  A    between atoms: O_1  and  C_15 
REMARK    2  A    between atoms: O_2  and  C_19 
REMARK    3  A    between atoms: O_3  and  C_20 
REMARK    4  A    between atoms: O_4  and  C_24 
REMARK    5  A    between atoms: N_7  and  C_8 
REMARK       I    between atoms: N_7  and  C_22 
ROOT
HETATM    1  O   UNK     0       1.637 -20.469 -54.709  0.00  0.00    -0.352 OA
HETATM    2  C   UNK     0       0.530 -21.190 -54.176  0.00  0.00     0.210 C 
ENDROOT
BRANCH   1   3
HETATM    3  C   UNK     0       1.425 -19.158 -55.028  0.00  0.00     0.116 A 
HETATM    4  C   UNK     0       1.015 -18.788 -56.319  0.00  0.00     0.017 A 
HETATM    5  C   UNK     0       0.760 -17.430 -56.605  0.00  0.00    -0.041 A 
HETATM    6  C   UNK     0       0.810 -19.819 -57.380  0.00  0.00    -0.014 C 
HETATM    7  C   UNK     0       0.283 -17.026 -57.975  0.00  0.00     0.042 C 
HETATM    8  C   UNK     0       0.935 -16.468 -55.601  0.00  0.00     0.047 A 
HETATM    9  C   UNK     0      -1.139 -17.505 -58.298  0.00  0.00     0.034 C 
HETATM   10  C   UNK     0      -1.554 -18.916 -57.819  0.00  0.00     0.119 C 
HETATM   11  C   UNK     0      -0.512 -20.026 -57.991  0.00  0.00    -0.020 C 
HETATM   12  C   UNK     0      -0.910 -21.149 -58.616  0.00  0.00     0.068 C 
HETATM   13  C   UNK     0      -0.150 -22.385 -58.919  0.00  0.00     0.205 C 
HETATM   14  O   UNK     0      -0.744 -23.460 -58.982  0.00  0.00    -0.285 OA
HETATM   15  C   UNK     0       1.280 -22.300 -59.294  0.00  0.00     0.118 C 
HETATM   16  C   UNK     0       2.145 -21.409 -58.803  0.00  0.00     0.042 C 
HETATM   17  C   UNK     0       1.944 -20.435 -57.765  0.00  0.00     0.016 C 
HETATM   18  C   UNK     0       1.353 -16.848 -54.325  0.00  0.00     0.104 A 
HETATM   19  C   UNK     0       1.596 -18.189 -54.039  0.00  0.00     0.136 A 
BRANCH  10  20
HETATM   20  N   UNK     0      -2.017 -18.908 -56.445  0.00  0.00    -0.353 N 
HETATM   21  C   UNK     0      -3.224 -19.455 -56.054  0.00  0.00     0.214 C 
HETATM   22  O   UNK     0      -4.041 -20.004 -56.789  0.00  0.00    -0.274 OA
HETATM   23  C   UNK     0      -3.446 -19.334 -54.570  0.00  0.00     0.117 C 
HETATM   24  H   UNK     0      -1.427 -18.503 -55.724  0.00  0.00     0.163 HD
ENDBRANCH  10  20
BRANCH  15  25
HETATM   25  O   UNK     0       1.735 -23.243 -60.204  0.00  0.00    -0.352 OA
HETATM   26  C   UNK     0       3.094 -23.543 -59.966  0.00  0.00     0.210 C 
ENDBRANCH  15  25
BRANCH  18  27
HETATM   27  O   UNK     0       1.515 -15.895 -53.366  0.00  0.00    -0.353 OA
HETATM   28  C   UNK     0       0.975 -14.603 -53.638  0.00  0.00     0.210 C 
ENDBRANCH  18  27
BRANCH  19  29
HETATM   29  O   UNK     0       1.994 -18.555 -52.787  0.00  0.00    -0.351 OA
HETATM   30  C   UNK     0       3.397 -18.560 -52.530  0.00  0.00     0.210 C 
ENDBRANCH  19  29
ENDBRANCH   1   3
TORSDOF 5
ENDMDL
MODEL 9
REMARK VINA RESULT:      -5.5      3.103      4.838
REMARK  5 active torsions:
REMARK  status: ('A' for Active; 'I' for Inactive)
REMARK    1  A    between atoms: O_1  and  C_15 
REMARK    2  A    between atoms: O_2  and  C_19 
REMARK    3  A    between atoms: O_3  and  C_20 
REMARK    4  A    between atoms: O_4  and  C_24 
REMARK    5  A    between atoms: N_7  and  C_8 
REMARK       I    between atoms: N_7  and  C_22 
ROOT
HETATM    1  O   UNK     0       8.462   3.426 -51.278  0.00  0.00    -0.352 OA
HETATM    2  C   UNK     0       9.656   3.353 -52.051  0.00  0.00     0.210 C 
ENDROOT
BRANCH   1   3
HETATM    3  C   UNK     0       8.239   2.415 -50.388  0.00  0.00     0.116 A 
HETATM    4  C   UNK     0       7.539   1.260 -50.769  0.00  0.00     0.017 A 
HETATM    5  C   UNK     0       7.363   0.213 -49.839  0.00  0.00    -0.041 A 
HETATM    6  C   UNK     0       7.008   1.112 -52.157  0.00  0.00    -0.014 C 
HETATM    7  C   UNK     0       6.647  -1.046 -50.249  0.00  0.00     0.042 C 
HETATM    8  C   UNK     0       7.879   0.348 -48.543  0.00  0.00     0.047 A 
HETATM    9  C   UNK     0       7.422  -1.893 -51.266  0.00  0.00     0.034 C 
HETATM   10  C   UNK     0       8.196  -1.154 -52.383  0.00  0.00     0.119 C 
HETATM   11  C   UNK     0       7.479   0.031 -53.037  0.00  0.00    -0.020 C 
HETATM   12  C   UNK     0       7.406   0.039 -54.381  0.00  0.00     0.068 C 
HETATM   13  C   UNK     0       6.797   1.036 -55.292  0.00  0.00     0.205 C 
HETATM   14  O   UNK     0       7.263   1.190 -56.420  0.00  0.00    -0.285 OA
HETATM   15  C   UNK     0       5.547   1.728 -54.901  0.00  0.00     0.118 C 
HETATM   16  C   UNK     0       5.229   2.079 -53.653  0.00  0.00     0.042 C 
HETATM   17  C   UNK     0       6.023   1.979 -52.458  0.00  0.00     0.016 C 
HETATM   18  C   UNK     0       8.565   1.506 -48.173  0.00  0.00     0.104 A 
HETATM   19  C   UNK     0       8.746   2.535 -49.093  0.00  0.00     0.136 A 
BRANCH  10  20
HETATM   20  N   UNK     0       9.510  -0.729 -51.942  0.00  0.00    -0.353 N 
HETATM   21  C   UNK     0      10.610  -1.566 -51.938  0.00  0.00     0.214 C 
HETATM   22  O   UNK     0      10.625  -2.741 -52.294  0.00  0.00    -0.274 OA
HETATM   23  C   UNK     0      11.852  -0.865 -51.458  0.00  0.00     0.117 C 
HETATM   24  H   UNK     0       9.647   0.231 -51.640  0.00  0.00     0.163 HD
ENDBRANCH  10  20
BRANCH  15  25
HETATM   25  O   UNK     0       4.672   2.045 -55.929  0.00  0.00    -0.352 OA
HETATM   26  C   UNK     0       3.903   3.180 -55.590  0.00  0.00     0.210 C 
ENDBRANCH  15  25
BRANCH  18  27
HETATM   27  O   UNK     0       9.058   1.613 -46.908  0.00  0.00    -0.353 OA
HETATM   28  C   UNK     0       8.109   1.753 -45.852  0.00  0.00     0.210 C 
ENDBRANCH  18  27
BRANCH  19  29
HETATM   29  O   UNK     0       9.427   3.660 -48.729  0.00  0.00    -0.351 OA
HETATM   30  C   UNK     0       8.660   4.732 -48.185  0.00  0.00     0.210 C 
ENDBRANCH  19  29
ENDBRANCH   1   3
TORSDOF 5
ENDMDL
